#------------------------------------------------------

#DFT-relaxed structures Cs2 PbI4

#Used QE with Pseudo Dojo Norm-Conserving Fully Relativistic pseudo-potentials with a PBE exchange corrrelation function.

#Force convergence tolerance 1e-3.

#William Davie, MPhil Thesis,
#Deparment of Physics, Deparment of Material Science, University of Cambridge 06/25.

#------------------------------------------------------

#a total of 45 structures are obtained labeled each is labeled as data_{beta}_{delta}

# where beta,delta = 0, 2.5, 5, 7.5, 10, 12.5, 15, 17.5, 20 and beta >= delta

#------------------------------------------------------

data_0_0

_symmetry_space_group_name_H-M    'P 1'
_cell_length_a                    8.904864711 
_cell_length_b                    8.904864711 
_cell_length_c                    16.0 
_cell_angle_alpha                 90
_cell_angle_beta                  90
_cell_angle_gamma                 90
_symmetry_Int_Tables_number       1

loop_
  _atom_site_type_symbol
  _atom_site_fract_x
  _atom_site_fract_y
  _atom_site_fract_z
Pb               0.0000000000        0.0000000000        0.0000000000   
Pb               0.5000000000        0.5000000000        0.0000000000    
I                0.2500000000        0.2500000000        0.0000000000    
I                0.7500000000        0.7500000000        0.0000000000   
I                0.2500000000        0.7500000000        0.0000000000    
I                0.7500000000        0.2500000000        0.0000000000    
I                0.0000000000        0.0000000000        0.1983868287    
I                0.0000000000        0.0000000000       -0.1983868287    
I                0.5000000000        0.5000000000        0.1983868287    
I                0.5000000000        0.5000000000       -0.1983868287  
Cs               0.5000000000        0.0000000000        0.1650920586
Cs               0.0000000000        0.5000000000        0.1650830991
Cs               0.5000000000        0.0000000000       -0.1650920586
Cs               0.0000000000        0.5000000000       -0.1650830991


#------------------------------------------------------

data_2.5_0

_symmetry_space_group_name_H-M    'P 1'
_cell_length_a                    8.945557636
_cell_length_b                    8.945557636
_cell_length_c                    16.0 
_cell_angle_alpha                 90
_cell_angle_beta                  90
_cell_angle_gamma                 90
_symmetry_Int_Tables_number       1

loop_
  _atom_site_type_symbol
  _atom_site_fract_x
  _atom_site_fract_y
  _atom_site_fract_z
Pb               0.0000000000        0.0000000000        0.0000000000    
Pb               0.5000000000        0.5000000000        0.0000000000    
I                0.2390847643        0.2609152357        0.0000000000    
I                0.7609152357        0.7390847643        0.0000000000    
I                0.2609152357        0.7609152357        0.0000000000    
I                0.7390847643        0.2390847643        0.0000000000    
I                0.0000000000        0.0000000000        0.1979253574    
I                0.0000000000        0.0000000000       -0.1979253574    
I                0.5000000000        0.5000000000        0.1979253574    
I                0.5000000000        0.5000000000       -0.1979253574    
Cs               0.5000000000        0.0000000000        0.1644417519
Cs               0.0000000000        0.5000000000        0.1644327924
Cs               0.5000000000        0.0000000000       -0.1644417519
Cs               0.0000000000        0.5000000000       -0.1644327924

#------------------------------------------------------

data_5_0

_symmetry_space_group_name_H-M    'P 1'
_cell_length_a                    8.880189659
_cell_length_b                    8.880189659 
_cell_length_c                    16.0 
_cell_angle_alpha                 90
_cell_angle_beta                  90
_cell_angle_gamma                 90
_symmetry_Int_Tables_number       1

loop_
  _atom_site_type_symbol
  _atom_site_fract_x
  _atom_site_fract_y
  _atom_site_fract_z
Pb               0.0000000000        0.0000000000        0.0000000000    
Pb               0.5000000000        0.5000000000        0.0000000000    
I                0.2281278341        0.2718721659        0.0000000000    
I                0.7718721659        0.7281278341        0.0000000000   
I                0.2718721659        0.7718721659        0.0000000000   
I                0.7281278341        0.2281278341        0.0000000000    
I                0.0000000000        0.0000000000        0.1975232049  
I                0.0000000000        0.0000000000       -0.1975232049   
I                0.5000000000        0.5000000000        0.1975232049    
I                0.5000000000        0.5000000000       -0.1975232049    
Cs               0.5000000000        0.0000000000        0.1688133120
Cs               0.0000000000        0.5000000000        0.1688043525
Cs               0.5000000000        0.0000000000       -0.1688133120
Cs               0.0000000000        0.5000000000       -0.1688043525

#------------------------------------------------------

data_7.5_0

_symmetry_space_group_name_H-M    'P 1'
_cell_length_a                    8.896091478
_cell_length_b                    8.896091478 
_cell_length_c                    16.0 
_cell_angle_alpha                 90
_cell_angle_beta                  90
_cell_angle_gamma                 90
_symmetry_Int_Tables_number       1

loop_
  _atom_site_type_symbol
  _atom_site_fract_x
  _atom_site_fract_y
  _atom_site_fract_z
Pb               0.0000000000        0.0000000000        0.0000000000    
Pb               0.5000000000        0.5000000000        0.0000000000    
I                0.2170868756        0.2829131244        0.0000000000    
I                0.7829131244        0.7170868756        0.0000000000    
I                0.2829131244        0.7829131244        0.0000000000    
I                0.7170868756        0.2170868756        0.0000000000    
I                0.0000000000        0.0000000000        0.1981325592    
I                0.0000000000        0.0000000000       -0.1981325592    
I                0.5000000000        0.5000000000        0.1981325592    
I                0.5000000000        0.5000000000       -0.1981325592    
Cs               0.5000000000        0.0000000000        0.1719657342
Cs               0.0000000000        0.5000000000        0.1719567747
Cs               0.5000000000        0.0000000000       -0.1719657342
Cs               0.0000000000        0.5000000000       -0.1719567747

#------------------------------------------------------

data_10_0 

_symmetry_space_group_name_H-M    'P 1'
_cell_length_a                    8.853281999
_cell_length_b                    8.853281999 
_cell_length_c                    16.0 
_cell_angle_alpha                 90
_cell_angle_beta                  90
_cell_angle_gamma                 90
_symmetry_Int_Tables_number       1

loop_
  _atom_site_type_symbol
  _atom_site_fract_x
  _atom_site_fract_y
  _atom_site_fract_z
Pb               0.0000000000        0.0000000000        0.0000000000    
Pb               0.5000000000        0.5000000000        0.0000000000    
I                0.2059182548        0.2940817452        0.0000000000    
I                0.7940817452        0.7059182548        0.0000000000    
I                0.2940817452        0.7940817452        0.0000000000    
I                0.7059182548        0.2059182548        0.0000000000    
I                0.0000000000        0.0000000000        0.1982941057    
I                0.0000000000        0.0000000000       -0.1982941057    
I                0.5000000000        0.5000000000        0.1982941057    
I                0.5000000000        0.5000000000       -0.1982941057    
Cs               0.5000000000        0.0000000000        0.1772183049
Cs               0.0000000000        0.5000000000        0.1772093454
Cs               0.5000000000        0.0000000000       -0.1772183049
Cs               0.0000000000        0.5000000000       -0.1772093454

#------------------------------------------------------

data_12.5_0

_symmetry_space_group_name_H-M    'P 1'
_cell_length_a                    8.795164436 
_cell_length_b                    8.795164436 
_cell_length_c                    16.0 
_cell_angle_alpha                 90
_cell_angle_beta                  90
_cell_angle_gamma                 90
_symmetry_Int_Tables_number       1

loop_
  _atom_site_type_symbol
  _atom_site_fract_x
  _atom_site_fract_y
  _atom_site_fract_z
Pb               0.0000000000        0.0000000000        0.0000000000    
Pb               0.5000000000        0.5000000000        0.0000000000    
I                0.1945763343        0.3054236657        0.0000000000    
I                0.8054236657        0.6945763343        0.0000000000    
I                0.3054236657        0.8054236657        0.0000000000    
I                0.6945763343        0.1945763343        0.0000000000    
I                0.0000000000        0.0000000000        0.1984945632    
I                0.0000000000        0.0000000000       -0.1984945632    
I                0.5000000000        0.5000000000        0.1984945632    
I                0.5000000000        0.5000000000       -0.1984945632    
Cs               0.5000000000        0.0000000000        0.1827675930
Cs               0.0000000000        0.5000000000        0.1827586335
Cs               0.5000000000        0.0000000000       -0.1827675930
Cs               0.0000000000        0.5000000000       -0.1827586335

#------------------------------------------------------

data_15_0

_symmetry_space_group_name_H-M    'P 1'
_cell_length_a                    8.721453389 
_cell_length_b                    8.721453389 
_cell_length_c                    16.0 
_cell_angle_alpha                 90
_cell_angle_beta                  90
_cell_angle_gamma                 90
_symmetry_Int_Tables_number       1

loop_
  _atom_site_type_symbol
  _atom_site_fract_x
  _atom_site_fract_y
  _atom_site_fract_z
Pb               0.0000000000        0.0000000000        0.0000000000    
Pb               0.5000000000        0.5000000000        0.0000000000    
I                0.1830127019        0.3169872981        0.0000000000    
I                0.8169872981        0.6830127019        0.0000000000    
I                0.3169872981        0.8169872981        0.0000000000    
I                0.6830127019        0.1830127019        0.0000000000    
I                0.0000000000        0.0000000000        0.1988085253    
I                0.0000000000        0.0000000000       -0.1988085253    
I                0.5000000000        0.5000000000        0.1988085253    
I                0.5000000000        0.5000000000       -0.1988085253    
Cs               0.5000000000        0.0000000000        0.1884058553
Cs               0.0000000000        0.5000000000        0.1883968958
Cs               0.5000000000        0.0000000000       -0.1884058553
Cs               0.0000000000        0.5000000000       -0.1883968958

#------------------------------------------------------

data_17.5_0

_symmetry_space_group_name_H-M    'P 1'
_cell_length_a                    8.640924755
_cell_length_b                    8.640924755
_cell_length_c                    16.0 
_cell_angle_alpha                 90
_cell_angle_beta                  90
_cell_angle_gamma                 90
_symmetry_Int_Tables_number       1

loop_
  _atom_site_type_symbol
  _atom_site_fract_x
  _atom_site_fract_y
  _atom_site_fract_z
Pb               0.0000000000        0.0000000000        0.0000000000    
Pb               0.5000000000        0.5000000000        0.0000000000    
I                0.1711753028        0.3288246972        0.0000000000    
I                0.8288246972        0.6711753028        0.0000000000    
I                0.3288246972        0.8288246972        0.0000000000    
I                0.6711753028        0.1711753028        0.0000000000    
I                0.0000000000        0.0000000000        0.2000671326    
I                0.0000000000        0.0000000000       -0.2000671326    
I                0.5000000000        0.5000000000        0.2000671326    
I                0.5000000000        0.5000000000       -0.2000671326    
Cs               0.5000000000        0.0000000000        0.1943864441
Cs               0.0000000000        0.5000000000        0.1943774846
Cs               0.5000000000        0.0000000000       -0.1943864441
Cs               0.0000000000        0.5000000000       -0.1943774846

#------------------------------------------------------

data_20_0

_symmetry_space_group_name_H-M    'P 1'
_cell_length_a                    8.570199500
_cell_length_b                    8.570199500
_cell_length_c                    16.0 
_cell_angle_alpha                 90
_cell_angle_beta                  90
_cell_angle_gamma                 90
_symmetry_Int_Tables_number       1

loop_
  _atom_site_type_symbol
  _atom_site_fract_x
  _atom_site_fract_y
  _atom_site_fract_z
Pb               0.0000000000        0.0000000000        0.0000000000    
Pb               0.5000000000        0.5000000000        0.0000000000    
I                0.1590074414        0.3409925586        0.0000000000    
I                0.8409925586        0.6590074414        0.0000000000    
I                0.3409925586        0.8409925586        0.0000000000    
I                0.6590074414        0.1590074414        0.0000000000    
I                0.0000000000        0.0000000000        0.2011781953    
I                0.0000000000        0.0000000000       -0.2011781953    
I                0.5000000000        0.5000000000        0.2011781953    
I                0.5000000000        0.5000000000       -0.2011781953    
Cs               0.5000000000        0.0000000000        0.1996263432
Cs               0.0000000000        0.5000000000        0.1996173837
Cs               0.5000000000        0.0000000000       -0.1996263432
Cs               0.0000000000        0.5000000000       -0.1996173837

#------------------------------------------------------

data_2.5_2.5

_symmetry_space_group_name_H-M    'P 1'
_cell_length_a                    8.835072314 
_cell_length_b                    9.118280074 
_cell_length_c                    16.0 
_cell_angle_alpha                 90
_cell_angle_beta                  90
_cell_angle_gamma                 90
_symmetry_Int_Tables_number       1

loop_
  _atom_site_type_symbol
  _atom_site_fract_x
  _atom_site_fract_y
  _atom_site_fract_z
Pb               0.0000000000        0.0000000000        0.0000000000    
Pb               0.5000000000        0.5000000000        0.0000000000    
I                0.2421648364        0.2573560120       -0.0062233785    
I                0.7578351636        0.7426439880        0.0062233785    
I                0.2578351636        0.7573560120        0.0062233785    
I                0.7421648364        0.2426439880       -0.0062233785    
I               -0.0004761159        0.0151916387        0.1983830722    
I                0.0004761159       -0.0151916387       -0.1983830722    
I                0.4995238841        0.4848083613        0.1983830722    
I                0.5004761159        0.5151916387       -0.1983830722    
Cs               0.4873818744        0.0354115170        0.1638009198
Cs              -0.0126181256        0.4645884830        0.1637919603
Cs               0.5126181256       -0.0354115170       -0.1638009198
Cs               0.0126181256        0.5354115170       -0.1637919603

#------------------------------------------------------

data_5_2.5

_symmetry_space_group_name_H-M    'P 1'
_cell_length_a                    8.854189333
_cell_length_b                    9.126752107
_cell_length_c                    16.0 
_cell_angle_alpha                 90
_cell_angle_beta                  90
_cell_angle_gamma                 90
_symmetry_Int_Tables_number       1

loop_
  _atom_site_type_symbol
  _atom_site_fract_x
  _atom_site_fract_y
  _atom_site_fract_z
Pb               0.0000000000        0.0000000000        0.0000000000    
Pb               0.5000000000        0.5000000000        0.0000000000    
I                0.2289607587        0.2698013671       -0.0062470075    
I                0.7710392413        0.7301986329        0.0062470075    
I                0.2710392413        0.7698013671        0.0062470075    
I                0.7289607587        0.2301986329       -0.0062470075    
I               -0.0012792453        0.0152007065        0.1992551567    
I                0.0012792453       -0.0152007065       -0.1992551567    
I                0.4987207547        0.4847992935        0.1992551567    
I                0.5012792453        0.5152007065       -0.1992551567    
Cs               0.4674668531        0.0452711337        0.1663081486
Cs              -0.0325331469        0.4547288663        0.1662991891
Cs               0.5325331469       -0.0452711337       -0.1663081486
Cs               0.0325331469        0.5452711337       -0.1662991891

#------------------------------------------------------

data_7.5_2.5

_symmetry_space_group_name_H-M    'P 1'
_cell_length_a                    8.781725904
_cell_length_b                    9.159979001
_cell_length_c                    16.0 
_cell_angle_alpha                 90
_cell_angle_beta                  90
_cell_angle_gamma                 90
_symmetry_Int_Tables_number       1

loop_
  _atom_site_type_symbol
  _atom_site_fract_x
  _atom_site_fract_y
  _atom_site_fract_z
Pb               0.0000000000        0.0000000000        0.0000000000    
Pb               0.5000000000        0.5000000000        0.0000000000    
I                0.2166840125        0.2806212906       -0.0062997521    
I                0.7833159875        0.7193787094        0.0062997521    
I                0.2833159875        0.7806212906        0.0062997521    
I                0.7166840125        0.2193787094       -0.0062997521    
I               -0.0020141813        0.0151142250        0.1997943098    
I                0.0020141813       -0.0151142250       -0.1997943098    
I                0.4979858187        0.4848857750        0.1997943098    
I                0.5020141813        0.5151142250       -0.1997943098    
Cs               0.4585524486        0.0519982409        0.1702994204
Cs              -0.0414475514        0.4480017591        0.1702904609
Cs               0.5414475514       -0.0519982409       -0.1702994204
Cs               0.0414475514        0.5519982409       -0.1702904609

#------------------------------------------------------

data_10_2.5

_symmetry_space_group_name_H-M    'P 1'
_cell_length_a                    8.736324663
_cell_length_b                    9.145184305
_cell_length_c                    16.0 
_cell_angle_alpha                 90
_cell_angle_beta                  90
_cell_angle_gamma                 90
_symmetry_Int_Tables_number       1

loop_
  _atom_site_type_symbol
  _atom_site_fract_x
  _atom_site_fract_y
  _atom_site_fract_z
Pb               0.0000000000        0.0000000000        0.0000000000    
Pb               0.5000000000        0.5000000000        0.0000000000    
I                0.2046235041        0.2914098408       -0.0063319550    
I                0.7953764959        0.7085901592        0.0063319550    
I                0.2953764959        0.7914098408        0.0063319550    
I                0.7046235041        0.2085901592       -0.0063319550    
I               -0.0027386532        0.0150885010        0.2004738271    
I                0.0027386532       -0.0150885010       -0.2004738271    
I                0.4972613468        0.4849114990        0.2004738271    
I                0.5027386532        0.5150885010       -0.2004738271    
Cs               0.4544737238        0.0550352944        0.1744932819
Cs              -0.0455262762        0.4449647056        0.1744843224
Cs               0.5455262762       -0.0550352944       -0.1744932819
Cs               0.0455262762        0.5550352944       -0.1744843224


#------------------------------------------------------

data_12.5_2.5

_symmetry_space_group_name_H-M    'P 1'
_cell_length_a                    8.641934557
_cell_length_b                    9.095391330 
_cell_length_c                    16.0 
_cell_angle_alpha                 90
_cell_angle_beta                  90
_cell_angle_gamma                 90
_symmetry_Int_Tables_number       1

loop_
  _atom_site_type_symbol
  _atom_site_fract_x
  _atom_site_fract_y
  _atom_site_fract_z
Pb               0.0000000000        0.0000000000        0.0000000000    
Pb               0.5000000000        0.5000000000        0.0000000000    
I                0.1922946381        0.3020949153       -0.0063523669    
I                0.8077053619        0.6979050847        0.0063523669    
I                0.3077053619        0.8020949153        0.0063523669    
I                0.6922946381        0.1979050847       -0.0063523669    
I               -0.0034738159        0.0150497970        0.2006041841    
I                0.0034738159       -0.0150497970       -0.2006041841    
I                0.4965261841        0.4849502030        0.2006041841    
I                0.5034738159        0.5150497970       -0.2006041841    
Cs               0.4600513608        0.0522680072        0.1806277666
Cs              -0.0399486392        0.4477319928        0.1806188071
Cs               0.5399486392       -0.0522680072       -0.1806277666
Cs               0.0399486392        0.5522680072       -0.1806188071

#------------------------------------------------------

data_15_2.5

_symmetry_space_group_name_H-M    'P 1'
_cell_length_a                    8.506529469 
_cell_length_b                    8.991352218
_cell_length_c                    16.0 
_cell_angle_alpha                 90
_cell_angle_beta                  90
_cell_angle_gamma                 90
_symmetry_Int_Tables_number       1

loop_
  _atom_site_type_symbol
  _atom_site_fract_x
  _atom_site_fract_y
  _atom_site_fract_z
Pb               0.0000000000        0.0000000000        0.0000000000    
Pb               0.5000000000        0.5000000000        0.0000000000    
I                0.1797454910        0.3129140856       -0.0063443126    
I                0.8202545090        0.6870859144        0.0063443126    
I                0.3202545090        0.8129140856        0.0063443126    
I                0.6797454910        0.1870859144       -0.0063443126    
I               -0.0042211991        0.0150210969        0.1999677631    
I                0.0042211991       -0.0150210969       -0.1999677631    
I                0.4957788009        0.4849789031        0.1999677631    
I                0.5042211991        0.5150210969       -0.1999677631    
Cs               0.4794823632        0.0402804634        0.1885891864
Cs              -0.0205176368        0.4597195366        0.1885802269
Cs               0.5205176368       -0.0402804634       -0.1885891864
Cs               0.0205176368        0.5402804634       -0.1885802269

#------------------------------------------------------

data_17.5_2.5

_symmetry_space_group_name_H-M    'P 1'
_cell_length_a                    8.382057653
_cell_length_b                    9.015286240
_cell_length_c                    16.0 
_cell_angle_alpha                 90
_cell_angle_beta                  90
_cell_angle_gamma                 90
_symmetry_Int_Tables_number       1

loop_
  _atom_site_type_symbol
  _atom_site_fract_x
  _atom_site_fract_y
  _atom_site_fract_z
Pb               0.0000000000        0.0000000000        0.0000000000    
Pb               0.5000000000        0.5000000000        0.0000000000    
I                0.1657006095        0.3228730055       -0.0064454204    
I                0.8342993905        0.6771269945        0.0064454204    
I                0.3342993905        0.8228730055        0.0064454204    
I                0.6657006095        0.1771269945       -0.0064454204    
I               -0.0050234470        0.0148976372        0.2014848588    
I                0.0050234470       -0.0148976372       -0.2014848588    
I                0.4949765530        0.4851023628        0.2014848588    
I                0.5050234470        0.5148976372       -0.2014848588    
Cs               0.4806592710        0.0395110196        0.1929663732
Cs              -0.0193407290        0.4604889804        0.1929663732
Cs               0.5193407290       -0.0395110196       -0.1929663732
Cs               0.0193407290        0.5395110196       -0.1929663732

#------------------------------------------------------

data_20_2.5

_symmetry_space_group_name_H-M    'P 1'
_cell_length_a                    8.279985960
_cell_length_b                    8.988382973
_cell_length_c                    16.0 
_cell_angle_alpha                 90
_cell_angle_beta                  90
_cell_angle_gamma                 90
_symmetry_Int_Tables_number       1

loop_
  _atom_site_type_symbol
  _atom_site_fract_x
  _atom_site_fract_y
  _atom_site_fract_z
Pb               0.0000000000        0.0000000000        0.0000000000    
Pb               0.5000000000        0.5000000000        0.0000000000    
I                0.1516584379        0.3334513115       -0.0065220644    
I                0.8483415621        0.6665486885        0.0065220644    
I                0.3483415621        0.8334513115        0.0065220644    
I                0.6516584379        0.1665486885       -0.0065220644    
I               -0.0058352618        0.0148341701        0.2030121848    
I                0.0058352618       -0.0148341701       -0.2030121848    
I                0.4941647382        0.4851658299        0.2030121848    
I                0.5058352618        0.5148341701       -0.2030121848    
Cs               0.4819737743        0.0388178669        0.1984520252
Cs              -0.0180262257        0.4611821331        0.1984520252
Cs               0.5180262257       -0.0388178669       -0.1984520252
Cs               0.0180262257        0.5388178669       -0.1984520252

#------------------------------------------------------

data_5_5

_symmetry_space_group_name_H-M    'P 1'
_cell_length_a                    8.679468932
_cell_length_b                    9.292094574
_cell_length_c                    16.0 
_cell_angle_alpha                 90
_cell_angle_beta                  90
_cell_angle_gamma                 90
_symmetry_Int_Tables_number       1

loop_
  _atom_site_type_symbol
  _atom_site_fract_x
  _atom_site_fract_y
  _atom_site_fract_z
Pb               0.0000000000        0.0000000000        0.0000000000    
Pb               0.5000000000        0.5000000000        0.0000000000    
I                0.2340486837        0.2639173193       -0.0127249290    
I                0.7659513163        0.7360826807        0.0127249290    
I                0.2659513163        0.7639173193        0.0127249290    
I                0.7340486837        0.2360826807       -0.0127249290    
I               -0.0019062849        0.0298766074        0.1986749333    
I                0.0019062849       -0.0298766074       -0.1986749333    
I                0.4980937151        0.4701233926        0.1986749333    
I                0.5019062849        0.5298766074       -0.1986749333    
Cs               0.4868036181        0.0468977181        0.1643384229
Cs              -0.0131963819        0.4531022819        0.1643294634
Cs               0.5131963819       -0.0468977181       -0.1643384229
Cs               0.0131963819        0.5468977181       -0.1643294634

#------------------------------------------------------

data_7.5_5

_symmetry_space_group_name_H-M    'P 1'
_cell_length_a                    8.607383394
_cell_length_b                    9.342466827 
_cell_length_c                    16.0 
_cell_angle_alpha                 90
_cell_angle_beta                  90
_cell_angle_gamma                 90
_symmetry_Int_Tables_number       1

loop_
  _atom_site_type_symbol
  _atom_site_fract_x
  _atom_site_fract_y
  _atom_site_fract_z
Pb               0.0000000000        0.0000000000        0.0000000000    
Pb               0.5000000000        0.5000000000        0.0000000000    
I                0.2188976099        0.2764005473       -0.0128548691    
I                0.7811023901        0.7235994527        0.0128548691    
I                0.2811023901        0.7764005473        0.0128548691    
I                0.7188976099        0.2235994527       -0.0128548691    
I               -0.0036934741        0.0296880244        0.1994368396    
I                0.0036934741       -0.0296880244       -0.1994368396    
I                0.4963065259        0.4703119756        0.1994368396    
I                0.5036934741        0.5296880244       -0.1994368396    
Cs               0.4779444647        0.0521762760        0.1683443816
Cs              -0.0220555353        0.4478237240        0.1683354221
Cs               0.5220555353       -0.0521762760       -0.1683443816
Cs               0.0220555353        0.5521762760       -0.1683354221

#------------------------------------------------------

data_10_5

_symmetry_space_group_name_H-M    'P 1'
_cell_length_a                    8.512256854 
_cell_length_b                    9.369374016
_cell_length_c                    16.0 
_cell_angle_alpha                 90
_cell_angle_beta                  90
_cell_angle_gamma                 90
_symmetry_Int_Tables_number       1

loop_
  _atom_site_type_symbol
  _atom_site_fract_x
  _atom_site_fract_y
  _atom_site_fract_z
Pb               0.0000000000        0.0000000000        0.0000000000    
Pb               0.5000000000        0.5000000000        0.0000000000    
I                0.2049642502        0.2871728351       -0.0129784339    
I                0.7950357498        0.7128271649        0.0129784339    
I                0.2950357498        0.7871728351        0.0129784339    
I                0.7049642502        0.2128271649       -0.0129784339    
I               -0.0053142493        0.0295001714        0.2000798055    
I                0.0053142493       -0.0295001714       -0.2000798055    
I                0.4946857507        0.4704998286        0.2000798055    
I                0.5053142493        0.5295001714       -0.2000798055    
Cs               0.4786697109        0.0512529784        0.1738355911
Cs              -0.0213302891        0.4487470216        0.1738355911
Cs               0.5213302891       -0.0512529784       -0.1738355911
Cs               0.0213302891        0.5512529784       -0.1738355911

#------------------------------------------------------

data_12.5_5

_symmetry_space_group_name_H-M    'P 1'
_cell_length_a                    8.404599117
_cell_length_b                    9.374089511 
_cell_length_c                    16.0 
_cell_angle_alpha                 90
_cell_angle_beta                  90
_cell_angle_gamma                 90
_symmetry_Int_Tables_number       1

loop_
  _atom_site_type_symbol
  _atom_site_fract_x
  _atom_site_fract_y
  _atom_site_fract_z
Pb               0.0000000000        0.0000000000        0.0000000000    
Pb               0.5000000000        0.5000000000        0.0000000000    
I                0.1910367915        0.2973976623       -0.0130978473    
I                0.8089632085        0.7026023377        0.0130978473    
I                0.3089632085        0.7973976623        0.0130978473    
I                0.6910367915        0.2026023377       -0.0130978473    
I               -0.0069166687        0.0293262056        0.2007299717    
I                0.0069166687       -0.0293262056       -0.2007299717    
I                0.4930833313        0.4706737944        0.2007299717    
I                0.5069166687        0.5293262056       -0.2007299717    
Cs               0.4796677985        0.0511342334        0.1795205916
Cs              -0.0203322015        0.4488657666        0.1795205916
Cs               0.5203322015       -0.0511342334       -0.1795205916
Cs               0.0203322015        0.5511342334       -0.1795205916

#------------------------------------------------------

data_15_5

_symmetry_space_group_name_H-M    'P 1'
_cell_length_a                    8.289852297 
_cell_length_b                    9.360517224
_cell_length_c                    16.0 
_cell_angle_alpha                 90
_cell_angle_beta                  90
_cell_angle_gamma                 90
_symmetry_Int_Tables_number       1

loop_
  _atom_site_type_symbol
  _atom_site_fract_x
  _atom_site_fract_y
  _atom_site_fract_z
Pb               0.0000000000        0.0000000000        0.0000000000    
Pb               0.5000000000        0.5000000000        0.0000000000    
I                0.1767644924        0.3073628730       -0.0132332381    
I                0.8232355076        0.6926371270        0.0132332381    
I                0.3232355076        0.8073628730        0.0132332381    
I                0.6767644924        0.1926371270       -0.0132332381    
I               -0.0085419262        0.0291591007        0.2016492821    
I                0.0085419262       -0.0291591007       -0.2016492821    
I                0.4914580738        0.4708408993        0.2016492821    
I                0.5085419262        0.5291591007       -0.2016492821    
Cs               0.4816772589        0.0510532980        0.1852206753
Cs              -0.0183227411        0.4489467020        0.1852206753
Cs               0.5183227411       -0.0510532980       -0.1852206753
Cs               0.0183227411        0.5510532980       -0.1852206753

#------------------------------------------------------

data_17.5_5

_symmetry_space_group_name_H-M    'P 1'
_cell_length_a                    8.163643950 
_cell_length_b                    9.347623006
_cell_length_c                    16.0 
_cell_angle_alpha                 90
_cell_angle_beta                  90
_cell_angle_gamma                 90
_symmetry_Int_Tables_number       1

loop_
  _atom_site_type_symbol
  _atom_site_fract_x
  _atom_site_fract_y
  _atom_site_fract_z
Pb               0.0000000000        0.0000000000        0.0000000000    
Pb               0.5000000000        0.5000000000        0.0000000000    
I                0.1618853014        0.3171411660       -0.0133776897    
I                0.8381146986        0.6828588340        0.0133776897    
I                0.3381146986        0.8171411660        0.0133776897    
I                0.6618853014        0.1828588340       -0.0133776897    
I               -0.0102161079        0.0289852546        0.2026350955    
I                0.0102161079       -0.0289852546       -0.2026350955    
I                0.4897838921        0.4710147454        0.2026350955    
I                0.5102161079        0.5289852546       -0.2026350955    
Cs               0.4822510964        0.0513672654        0.1908723577
Cs              -0.0177489036        0.4486327346        0.1908723577
Cs               0.5177489036       -0.0513672654       -0.1908723577
Cs               0.0177489036        0.5513672654       -0.1908723577

#------------------------------------------------------

data_20_5

_symmetry_space_group_name_H-M    'P 1'
_cell_length_a                    8.057009056
_cell_length_b                    9.317401489 
_cell_length_c                    16.0 
_cell_angle_alpha                 90
_cell_angle_beta                  90
_cell_angle_gamma                 90
_symmetry_Int_Tables_number       1

loop_
  _atom_site_type_symbol
  _atom_site_fract_x
  _atom_site_fract_y
  _atom_site_fract_z
Pb               0.0000000000        0.0000000000        0.0000000000    
Pb               0.5000000000        0.5000000000        0.0000000000    
I                0.1466686063        0.3271382264       -0.0135519345    
I                0.8533313937        0.6728617736        0.0135519345    
I                0.3533313937        0.8271382264        0.0135519345    
I                0.6466686063        0.1728617736       -0.0135519345    
I               -0.0119278946        0.0288583513        0.2043756899    
I                0.0119278946       -0.0288583513       -0.2043756899    
I                0.4880721054        0.4711416487        0.2043756899    
I                0.5119278946        0.5288583513       -0.2043756899    
Cs               0.4880217128        0.0508275730        0.1960680924
Cs              -0.0119782872        0.4491724270        0.1960680924
Cs               0.5119782872       -0.0508275730       -0.1960680924
Cs               0.0119782872        0.5508275730       -0.1960680924

#------------------------------------------------------

data_7.5_7.5

_symmetry_space_group_name_H-M    'P 1'
_cell_length_a                    8.525614861
_cell_length_b                    9.317401489 
_cell_length_c                    16.0 
_cell_angle_alpha                 90
_cell_angle_beta                  90
_cell_angle_gamma                 90
_symmetry_Int_Tables_number       1

loop_
  _atom_site_type_symbol
  _atom_site_fract_x
  _atom_site_fract_y
  _atom_site_fract_z
Pb               0.0000000000        0.0000000000        0.0000000000    
Pb               0.5000000000        0.5000000000        0.0000000000    
I                0.2256846732        0.2698142980       -0.0195026238    
I                0.7743153268        0.7301857020        0.0195026238    
I                0.2743153268        0.7698142980        0.0195026238    
I                0.7256846732        0.2301857020       -0.0195026238    
I               -0.0042960248        0.0441699267        0.1988023474    
I                0.0042960248       -0.0441699267       -0.1988023474    
I                0.4957039752        0.4558300733        0.1988023474    
I                0.5042960248        0.5441699267       -0.1988023474    
Cs               0.4949012009        0.0478587829        0.1650116053
Cs              -0.0050987991        0.4521412171        0.1650026458
Cs               0.5050987991       -0.0478587829       -0.1650116053
Cs               0.0050987991        0.5478587829       -0.1650026458

#------------------------------------------------------

data_10_7.5

_symmetry_space_group_name_H-M    'P 1'
_cell_length_a                    8.496618412  
_cell_length_b                    9.462349081
_cell_length_c                    16.0 
_cell_angle_alpha                 90
_cell_angle_beta                  90
_cell_angle_gamma                 90
_symmetry_Int_Tables_number       1

loop_
  _atom_site_type_symbol
  _atom_site_fract_x
  _atom_site_fract_y
  _atom_site_fract_z
Pb               0.0000000000        0.0000000000        0.0000000000    
Pb               0.5000000000        0.5000000000        0.0000000000    
I                0.2093748861        0.2827558511       -0.0196708408    
I                0.7906251139        0.7172441489        0.0196708408    
I                0.2906251139        0.7827558511        0.0196708408    
I                0.7093748861        0.2172441489       -0.0196708408    
I               -0.0071607809        0.0440662204        0.2000462951    
I                0.0071607809       -0.0440662204       -0.2000462951    
I                0.4928392191        0.4559337796        0.2000462951    
I                0.5071607809        0.5440662204       -0.2000462951    
Cs               0.4843464838        0.0498059169        0.1697303751
Cs              -0.0156535162        0.4501940831        0.1697303751
Cs               0.5156535162       -0.0498059169       -0.1697303751
Cs               0.0156535162        0.5498059169       -0.1697303751

#------------------------------------------------------

data_12.5_7.5

_symmetry_space_group_name_H-M    'P 1'
_cell_length_a                    8.380910582 
_cell_length_b                    9.479095009
_cell_length_c                    16.0 
_cell_angle_alpha                 90
_cell_angle_beta                  90
_cell_angle_gamma                 90
_symmetry_Int_Tables_number       1

loop_
  _atom_site_type_symbol
  _atom_site_fract_x
  _atom_site_fract_y
  _atom_site_fract_z
Pb               0.0000000000        0.0000000000        0.0000000000    
Pb               0.5000000000        0.5000000000        0.0000000000    
I                0.1941385062        0.2936819759       -0.0198929839    
I                0.8058614938        0.7063180241        0.0198929839    
I                0.3058614938        0.7936819759        0.0198929839    
I                0.6941385062        0.2063180241       -0.0198929839    
I               -0.0097805260        0.0437713232        0.2009515652    
I                0.0097805260       -0.0437713232       -0.2009515652    
I                0.4902194740        0.4562286768        0.2009515652    
I                0.5097805260        0.5437713232       -0.2009515652    
Cs               0.4891922377        0.0510903237        0.1757996845
Cs              -0.0108077623        0.4489096763        0.1757996845
Cs               0.5108077623       -0.0510903237       -0.1757996845
Cs               0.0108077623        0.5510903237       -0.1757996845

#------------------------------------------------------

data_15_7.5

_symmetry_space_group_name_H-M    'P 1'
_cell_length_a                    8.263539635
_cell_length_b                    9.485139678
_cell_length_c                    16.0 
_cell_angle_alpha                 90
_cell_angle_beta                  90
_cell_angle_gamma                 90
_symmetry_Int_Tables_number       1

loop_
  _atom_site_type_symbol
  _atom_site_fract_x
  _atom_site_fract_y
  _atom_site_fract_z
Pb               0.0000000000        0.0000000000        0.0000000000    
Pb               0.5000000000        0.5000000000        0.0000000000    
I                0.1789295615        0.3039418856       -0.0201028445    
I                0.8210704385        0.6960581144        0.0201028445    
I                0.3210704385        0.8039418856        0.0201028445    
I                0.6789295615        0.1960581144       -0.0201028445    
I               -0.0123636809        0.0434909406        0.2017706996    
I                0.0123636809       -0.0434909406       -0.2017706996    
I                0.4876363191        0.4565090594        0.2017706996    
I                0.5123636809        0.5434909406       -0.2017706996    
Cs               0.4936937712        0.0512435683        0.1819284225
Cs              -0.0063062288        0.4487564317        0.1819284225
Cs               0.5063062288       -0.0512435683       -0.1819284225
Cs               0.0063062288        0.5512435683       -0.1819284225

#------------------------------------------------------

data_17.5_7.5


_symmetry_space_group_name_H-M    'P 1'
_cell_length_a                    8.144068390 
_cell_length_b                    9.455211918 
_cell_length_c                    16.0 
_cell_angle_alpha                 90
_cell_angle_beta                  90
_cell_angle_gamma                 90
_symmetry_Int_Tables_number       1

loop_
  _atom_site_type_symbol
  _atom_site_fract_x
  _atom_site_fract_y
  _atom_site_fract_z
Pb               0.0000000000        0.0000000000        0.0000000000    
Pb               0.5000000000        0.5000000000        0.0000000000    
I                0.1636143519        0.3140887625       -0.0202932165    
I                0.8363856481        0.6859112375        0.0202932165    
I                0.3363856481        0.8140887625        0.0202932165    
I                0.6636143519        0.1859112375       -0.0202932165    
I               -0.0149554608        0.0432810921        0.2026986635    
I                0.0149554608       -0.0432810921       -0.2026986635    
I                0.4850445392        0.4567189079        0.2026986635    
I                0.5149554608        0.5432810921       -0.2026986635    
Cs               0.4948448142        0.0515519447        0.1889118137
Cs              -0.0051551858        0.4484480553        0.1889118137
Cs               0.5051551858       -0.0515519447       -0.1889118137
Cs               0.0051551858        0.5515519447       -0.1889118137

#------------------------------------------------------

data_20_7.5


_symmetry_space_group_name_H-M    'P 1'
_cell_length_a                    8.056888429 
_cell_length_b                    9.365657769
_cell_length_c                    16.0 
_cell_angle_alpha                 90
_cell_angle_beta                  90
_cell_angle_gamma                 90
_symmetry_Int_Tables_number       1

loop_
  _atom_site_type_symbol
  _atom_site_fract_x
  _atom_site_fract_y
  _atom_site_fract_z
Pb               0.0000000000        0.0000000000        0.0000000000    
Pb               0.5000000000        0.5000000000        0.0000000000    
I                0.1488147492        0.3249294913       -0.0203976015    
I                0.8511852508        0.6750705087        0.0203976015    
I                0.3511852508        0.8249294913        0.0203976015    
I                0.6488147492        0.1750705087       -0.0203976015    
I               -0.0175107934        0.0432641944        0.2036617678    
I                0.0175107934       -0.0432641944       -0.2036617678    
I                0.4824892066        0.4567358056        0.2036617678    
I                0.5175107934        0.5432641944       -0.2036617678    
Cs               0.4897456980        0.0508561049        0.1958927734
Cs              -0.0102543020        0.4491438951        0.1958927734
Cs               0.5102543020       -0.0508561049       -0.1958927734
Cs               0.0102543020        0.5508561049       -0.1958927734

#------------------------------------------------------

data_10_10


_symmetry_space_group_name_H-M    'P 1'
_cell_length_a                    8.413410291  
_cell_length_b                    9.539915614
_cell_length_c                    16.0 
_cell_angle_alpha                 90
_cell_angle_beta                  90
_cell_angle_gamma                 90
_symmetry_Int_Tables_number       1

loop_
  _atom_site_type_symbol
  _atom_site_fract_x
  _atom_site_fract_y
  _atom_site_fract_z
Pb               0.0000000000        0.0000000000        0.0000000000    
Pb               0.5000000000        0.5000000000        0.0000000000    
I                0.2172240474        0.2754923806       -0.0264586116    
I                0.7827759526        0.7245076194        0.0264586116    
I                0.2827759526        0.7754923806        0.0264586116    
I                0.7172240474        0.2245076194       -0.0264586116    
I               -0.0076547147        0.0583866685        0.1987481959    
I                0.0076547147       -0.0583866685       -0.1987481959    
I                0.4923452853        0.4416133315        0.1987481959    
I                0.5076547147        0.5583866685       -0.1987481959    
Cs               0.5034043340        0.0477739598        0.1661012329
Cs               0.0034043340        0.4522260402        0.1661012329
Cs               0.4965956660       -0.0477739598       -0.1661012329
Cs              -0.0034043340        0.5477739598       -0.1661012329


#------------------------------------------------------

data_12.5_10


_symmetry_space_group_name_H-M    'P 1'
_cell_length_a                    8.317186771  
_cell_length_b                    9.561521705
_cell_length_c                    16.0 
_cell_angle_alpha                 90
_cell_angle_beta                  90
_cell_angle_gamma                 90
_symmetry_Int_Tables_number       1

loop_
  _atom_site_type_symbol
  _atom_site_fract_x
  _atom_site_fract_y
  _atom_site_fract_z
Pb               0.0000000000        0.0000000000        0.0000000000    
Pb               0.5000000000        0.5000000000        0.0000000000    
I                0.1997821974        0.2886159071       -0.0266949535    
I                0.8002178026        0.7113840929        0.0266949535    
I                0.3002178026        0.7886159071        0.0266949535    
I                0.6997821974        0.2113840929       -0.0266949535    
I               -0.0116996101        0.0582443350        0.2000346860    
I                0.0116996101       -0.0582443350       -0.2000346860    
I                0.4883003899        0.4417556650        0.2000346860    
I                0.5116996101        0.5582443350       -0.2000346860    
Cs               0.5063463093        0.0490435263        0.1733269854
Cs               0.0063463093        0.4509564737        0.1733269854
Cs               0.4936536907       -0.0490435263       -0.1733269854
Cs              -0.0063463093        0.5490435263       -0.1733269854


#------------------------------------------------------

data_15_10


_symmetry_space_group_name_H-M    'P 1'
_cell_length_a                    8.226050334 
_cell_length_b                    9.572776052
_cell_length_c                    16.0 
_cell_angle_alpha                 90
_cell_angle_beta                  90
_cell_angle_gamma                 90
_symmetry_Int_Tables_number       1

loop_
  _atom_site_type_symbol
  _atom_site_fract_x
  _atom_site_fract_y
  _atom_site_fract_z
Pb               0.0000000000        0.0000000000        0.0000000000    
Pb               0.5000000000        0.5000000000        0.0000000000    
I                0.1830454173        0.2994409987       -0.0270634792    
I                0.8169545827        0.7005590013        0.0270634792    
I                0.3169545827        0.7994409987        0.0270634792    
I                0.6830454173        0.2005590013       -0.0270634792    
I               -0.0154659970        0.0577480897        0.2010683431    
I                0.0154659970       -0.0577480897       -0.2010683431    
I                0.4845340030        0.4422519103        0.2010683431    
I                0.5154659970        0.5577480897       -0.2010683431    
Cs               0.5069868755        0.0489876482        0.1799894542
Cs               0.0069868755        0.4510123518        0.1799894542
Cs               0.4930131245       -0.0489876482       -0.1799894542
Cs              -0.0069868755        0.5489876482       -0.1799894542


#------------------------------------------------------

data_17.5_10


_symmetry_space_group_name_H-M    'P 1'
_cell_length_a                    8.146002714 
_cell_length_b                    9.547777558
_cell_length_c                    16.0 
_cell_angle_alpha                 90
_cell_angle_beta                  90
_cell_angle_gamma                 90
_symmetry_Int_Tables_number       1

loop_
  _atom_site_type_symbol
  _atom_site_fract_x
  _atom_site_fract_y
  _atom_site_fract_z
Pb               0.0000000000        0.0000000000        0.0000000000    
Pb               0.5000000000        0.5000000000        0.0000000000    
I                0.1671327265        0.3103231928       -0.0273385131    
I                0.8328672735        0.6896768072        0.0273385131    
I                0.3328672735        0.8103231928        0.0273385131    
I                0.6671327265        0.1896768072       -0.0273385131    
I               -0.0190849589        0.0575768879        0.2025095581    
I                0.0190849589       -0.0575768879       -0.2025095581    
I                0.4809150411        0.4424231121        0.2025095581    
I                0.5190849589        0.5575768879       -0.2025095581    
Cs               0.4988343224        0.0489416730        0.1881894322
Cs              -0.0011656776        0.4510583270        0.1881894322
Cs               0.5011656776       -0.0489416730       -0.1881894322
Cs               0.0011656776        0.5489416730       -0.1881894322



#------------------------------------------------------

data_20_10


_symmetry_space_group_name_H-M    'P 1'
_cell_length_a                    8.036126265  
_cell_length_b                    9.493579784
_cell_length_c                    16.0 
_cell_angle_alpha                 90
_cell_angle_beta                  90
_cell_angle_gamma                 90
_symmetry_Int_Tables_number       1

loop_
  _atom_site_type_symbol
  _atom_site_fract_x
  _atom_site_fract_y
  _atom_site_fract_z
Pb               0.0000000000        0.0000000000        0.0000000000    
Pb               0.5000000000        0.5000000000        0.0000000000    
I                0.1511836846        0.3210644206       -0.0275982193    
I                0.8488163154        0.6789355794        0.0275982193    
I                0.3488163154        0.8210644206        0.0275982193    
I                0.6511836846        0.1789355794       -0.0275982193    
I               -0.0227011927        0.0574328051        0.2039217451    
I                0.0227011927       -0.0574328051       -0.2039217451    
I                0.4772988073        0.4425671949        0.2039217451    
I                0.5227011927        0.5574328051       -0.2039217451    
Cs               0.4952108282        0.0489920605        0.1960370225
Cs              -0.0047891718        0.4510079395        0.1960370225
Cs               0.5047891718       -0.0489920605       -0.1960370225
Cs               0.0047891718        0.5489920605       -0.1960370225

#------------------------------------------------------

data_12.5_12.5

_symmetry_space_group_name_H-M    'P 1'
_cell_length_a                    8.578286731 
_cell_length_b                    9.398363597
_cell_length_c                    16.0 
_cell_angle_alpha                 90
_cell_angle_beta                  90
_cell_angle_gamma                 90
_symmetry_Int_Tables_number       1

loop_
  _atom_site_type_symbol
  _atom_site_fract_x
  _atom_site_fract_y
  _atom_site_fract_z
Pb               0.0000000000        0.0000000000        0.0000000000    
Pb               0.5000000000        0.5000000000        0.0000000000    
I                0.2095885253        0.2836149969       -0.0329084382    
I                0.7904114747        0.7163850031        0.0329084382    
I                0.2904114747        0.7836149969        0.0329084382    
I                0.7095885253        0.2163850031       -0.0329084382    
I               -0.0119958768        0.0742108330        0.1987577606    
I                0.0119958768       -0.0742108330       -0.1987577606    
I                0.4880041232        0.4257891670        0.1987577606    
I                0.5119958768        0.5742108330       -0.1987577606    
Cs               0.5372178451        0.0335259491        0.1684881696
Cs               0.0372178451        0.4664740509        0.1684881696
Cs               0.4627821549       -0.0335259491       -0.1684881696
Cs              -0.0372178451        0.5335259491       -0.1684881696

#------------------------------------------------------

data_15_12.5

_symmetry_space_group_name_H-M    'P 1'
_cell_length_a                    8.464213915 
_cell_length_b                    9.470959475 
_cell_length_c                    16.0 
_cell_angle_alpha                 90
_cell_angle_beta                  90
_cell_angle_gamma                 90
_symmetry_Int_Tables_number       1

loop_
  _atom_site_type_symbol
  _atom_site_fract_x
  _atom_site_fract_y
  _atom_site_fract_z
Pb               0.0000000000        0.0000000000        0.0000000000    
Pb               0.5000000000        0.5000000000        0.0000000000    
I                0.1899753375        0.2939731991       -0.0341175393    
I                0.8100246625        0.7060268009        0.0341175393    
I                0.3100246625        0.7939731991        0.0341175393    
I                0.6899753375        0.2060268009       -0.0341175393    
I               -0.0173415502        0.0722267710        0.2005512698    
I                0.0173415502       -0.0722267710       -0.2005512698    
I                0.4826584498        0.4277732290        0.2005512698    
I                0.5173415502        0.5722267710       -0.2005512698    
Cs               0.5342363411        0.0384381193        0.1756922165
Cs               0.0342363411        0.4615618807        0.1756922165
Cs               0.4657636589       -0.0384381193       -0.1756922165
Cs              -0.0342363411        0.5384381193       -0.1756922165

#------------------------------------------------------

data_17.5_12.5

_symmetry_space_group_name_H-M    'P 1'
_cell_length_a                    8.141976805 
_cell_length_b                    9.631778543 
_cell_length_c                    16.0 
_cell_angle_alpha                 90
_cell_angle_beta                  90
_cell_angle_gamma                 90
_symmetry_Int_Tables_number       1

loop_
  _atom_site_type_symbol
  _atom_site_fract_x
  _atom_site_fract_y
  _atom_site_fract_z
Pb               0.0000000000        0.0000000000        0.0000000000    
Pb               0.5000000000        0.5000000000        0.0000000000    
I                0.1723910848        0.3053718039       -0.0345513621    
I                0.8276089152        0.6946281961        0.0345513621    
I                0.3276089152        0.8053718039        0.0345513621    
I                0.6723910848        0.1946281961       -0.0345513621    
I               -0.0223011778        0.0718383247        0.2020090776    
I                0.0223011778       -0.0718383247       -0.2020090776    
I                0.4776988222        0.4281616753        0.2020090776    
I                0.5223011778        0.5718383247       -0.2020090776    
Cs               0.5057397077        0.0459964757        0.1872283376
Cs               0.0057397077        0.4540035243        0.1872283376
Cs               0.4942602923       -0.0459964757       -0.1872283376
Cs              -0.0057397077        0.5459964757       -0.1872283376

#------------------------------------------------------

data_20_12.5

_symmetry_space_group_name_H-M    'P 1'
_cell_length_a                    8.024826040  
_cell_length_b                    9.625630725 
_cell_length_c                    16.0 
_cell_angle_alpha                 90
_cell_angle_beta                  90
_cell_angle_gamma                 90
_symmetry_Int_Tables_number       1

loop_
  _atom_site_type_symbol
  _atom_site_fract_x
  _atom_site_fract_y
  _atom_site_fract_z
Pb               0.0000000000        0.0000000000        0.0000000000    
Pb               0.5000000000        0.5000000000        0.0000000000    
I                0.1549065532        0.3160949869       -0.0350617084    
I                0.8450934468        0.6839050131        0.0350617084    
I                0.3450934468        0.8160949869        0.0350617084    
I                0.6549065532        0.1839050131       -0.0350617084    
I               -0.0271822669        0.0714619877        0.2039189949    
I                0.0271822669       -0.0714619877       -0.2039189949    
I                0.4728177331        0.4285380123        0.2039189949    
I                0.5271822669        0.5714619877       -0.2039189949    
Cs               0.4989037541        0.0464337169        0.1964432618
Cs              -0.0010962459        0.4535662831        0.1964432618
Cs               0.5010962459       -0.0464337169       -0.1964432618
Cs               0.0010962459        0.5464337169       -0.1964432618