#------------------------------------------------------

#DFT-relaxed structures Cs2 PbI4

# Exactly the same structures as (Cs)2_PbI4_structures but centred in the middle of the unit cell

#------------------------------------------------------

data_0_0

_symmetry_space_group_name_H-M    'P 1'
_cell_length_a                    8.904864711 
_cell_length_b                    8.904864711
_cell_length_c                    16.0 
_cell_angle_alpha                 90
_cell_angle_beta                  90
_cell_angle_gamma                 90
_symmetry_Int_Tables_number       1

loop_
  _atom_site_type_symbol
  _atom_site_fract_x
  _atom_site_fract_y
  _atom_site_fract_z
Pb        0.0000000000        0.0000000000        0.5000000000
Pb        0.5000000000        0.5000000000        0.5000000000
I         0.2500000000        0.2500000000        0.5000000000
I         0.7500000000        0.7500000000        0.5000000000
I         0.2500000000        0.7500000000        0.5000000000
I         0.7500000000        0.2500000000        0.5000000000
I         0.0000000000        0.0000000000        0.6983868287
I         0.0000000000        0.0000000000        0.3016131713
I         0.5000000000        0.5000000000        0.6983868287
I         0.5000000000        0.5000000000        0.3016131713
Cs        0.5000000000        0.0000000000        0.6650920586
Cs        0.0000000000        0.5000000000        0.6650830991
Cs        0.5000000000        0.0000000000        0.3349079414
Cs        0.0000000000        0.5000000000        0.3349169009

#------------------------------------------------------

data_2.5_0

_symmetry_space_group_name_H-M    'P 1'
_cell_length_a                    8.945557636 
_cell_length_b                    8.945557636
_cell_length_c                    16.0 
_cell_angle_alpha                 90
_cell_angle_beta                  90
_cell_angle_gamma                 90
_symmetry_Int_Tables_number       1

loop_
  _atom_site_type_symbol
  _atom_site_fract_x
  _atom_site_fract_y
  _atom_site_fract_z
Pb        0.0000000000        0.0000000000        0.5000000000
Pb        0.5000000000        0.5000000000        0.5000000000
I         0.2390847643        0.2609152357        0.5000000000
I         0.7609152357        0.7390847643        0.5000000000
I         0.2609152357        0.7609152357        0.5000000000
I         0.7390847643        0.2390847643        0.5000000000
I         0.0000000000        0.0000000000        0.6979253574
I         0.0000000000        0.0000000000        0.3020746426
I         0.5000000000        0.5000000000        0.6979253574
I         0.5000000000        0.5000000000        0.3020746426
Cs        0.5000000000        0.0000000000        0.6644417519
Cs        0.0000000000        0.5000000000        0.6644327924
Cs        0.5000000000        0.0000000000        0.3355582481
Cs        0.0000000000        0.5000000000        0.3355672076

#------------------------------------------------------

data_5_0

_symmetry_space_group_name_H-M    'P 1'
_cell_length_a                    8.880189659 
_cell_length_b                    8.880189659
_cell_length_c                    16.0 
_cell_angle_alpha                 90
_cell_angle_beta                  90
_cell_angle_gamma                 90
_symmetry_Int_Tables_number       1

loop_
  _atom_site_type_symbol
  _atom_site_fract_x
  _atom_site_fract_y
  _atom_site_fract_z
Pb        0.0000000000        0.0000000000        0.5000000000
Pb        0.5000000000        0.5000000000        0.5000000000
I         0.2281278341        0.2718721659        0.5000000000
I         0.7718721659        0.7281278341        0.5000000000
I         0.2718721659        0.7718721659        0.5000000000
I         0.7281278341        0.2281278341        0.5000000000
I         0.0000000000        0.0000000000        0.6975232049
I         0.0000000000        0.0000000000        0.3024767951
I         0.5000000000        0.5000000000        0.6975232049
I         0.5000000000        0.5000000000        0.3024767951
Cs        0.5000000000        0.0000000000        0.6688133120
Cs        0.0000000000        0.5000000000        0.6688043525
Cs        0.5000000000        0.0000000000        0.3311866880
Cs        0.0000000000        0.5000000000        0.3311956475

#------------------------------------------------------

data_7.5_0

_symmetry_space_group_name_H-M    'P 1'
_cell_length_a                    8.896091478 
_cell_length_b                    8.896091478
_cell_length_c                    16.0 
_cell_angle_alpha                 90
_cell_angle_beta                  90
_cell_angle_gamma                 90
_symmetry_Int_Tables_number       1

loop_
  _atom_site_type_symbol
  _atom_site_fract_x
  _atom_site_fract_y
  _atom_site_fract_z
Pb        0.0000000000        0.0000000000        0.5000000000
Pb        0.5000000000        0.5000000000        0.5000000000
I         0.2170868756        0.2829131244        0.5000000000
I         0.7829131244        0.7170868756        0.5000000000
I         0.2829131244        0.7829131244        0.5000000000
I         0.7170868756        0.2170868756        0.5000000000
I         0.0000000000        0.0000000000        0.6981325592
I         0.0000000000        0.0000000000        0.3018674408
I         0.5000000000        0.5000000000        0.6981325592
I         0.5000000000        0.5000000000        0.3018674408
Cs        0.5000000000        0.0000000000        0.6719657342
Cs        0.0000000000        0.5000000000        0.6719567747
Cs        0.5000000000        0.0000000000        0.3280342658
Cs        0.0000000000        0.5000000000        0.3280432253

#------------------------------------------------------

data_10_0

_symmetry_space_group_name_H-M    'P 1'
_cell_length_a                    8.853281999 
_cell_length_b                    8.853281999
_cell_length_c                    16.0 
_cell_angle_alpha                 90
_cell_angle_beta                  90
_cell_angle_gamma                 90
_symmetry_Int_Tables_number       1

loop_
  _atom_site_type_symbol
  _atom_site_fract_x
  _atom_site_fract_y
  _atom_site_fract_z
Pb        0.0000000000        0.0000000000        0.5000000000
Pb        0.5000000000        0.5000000000        0.5000000000
I         0.2059182548        0.2940817452        0.5000000000
I         0.7940817452        0.7059182548        0.5000000000
I         0.2940817452        0.7940817452        0.5000000000
I         0.7059182548        0.2059182548        0.5000000000
I         0.0000000000        0.0000000000        0.6982941057
I         0.0000000000        0.0000000000        0.3017058943
I         0.5000000000        0.5000000000        0.6982941057
I         0.5000000000        0.5000000000        0.3017058943
Cs        0.5000000000        0.0000000000        0.6772183049
Cs        0.0000000000        0.5000000000        0.6772093454
Cs        0.5000000000        0.0000000000        0.3227816951
Cs        0.0000000000        0.5000000000        0.3227906546

#------------------------------------------------------

data_12.5_0

_symmetry_space_group_name_H-M    'P 1'
_cell_length_a                    8.795164436 
_cell_length_b                    8.795164436
_cell_length_c                    16.0 
_cell_angle_alpha                 90
_cell_angle_beta                  90
_cell_angle_gamma                 90
_symmetry_Int_Tables_number       1

loop_
  _atom_site_type_symbol
  _atom_site_fract_x
  _atom_site_fract_y
  _atom_site_fract_z
Pb        0.0000000000        0.0000000000        0.5000000000
Pb        0.5000000000        0.5000000000        0.5000000000
I         0.1945763343        0.3054236657        0.5000000000
I         0.8054236657        0.6945763343        0.5000000000
I         0.3054236657        0.8054236657        0.5000000000
I         0.6945763343        0.1945763343        0.5000000000
I         0.0000000000        0.0000000000        0.6984945632
I         0.0000000000        0.0000000000        0.3015054368
I         0.5000000000        0.5000000000        0.6984945632
I         0.5000000000        0.5000000000        0.3015054368
Cs        0.5000000000        0.0000000000        0.6827675930
Cs        0.0000000000        0.5000000000        0.6827586335
Cs        0.5000000000        0.0000000000        0.3172324070
Cs        0.0000000000        0.5000000000        0.3172413665

#------------------------------------------------------

data_15_0

_symmetry_space_group_name_H-M    'P 1'
_cell_length_a                    8.721453389 
_cell_length_b                    8.721453389
_cell_length_c                    16.0 
_cell_angle_alpha                 90
_cell_angle_beta                  90
_cell_angle_gamma                 90
_symmetry_Int_Tables_number       1

loop_
  _atom_site_type_symbol
  _atom_site_fract_x
  _atom_site_fract_y
  _atom_site_fract_z
Pb        0.0000000000        0.0000000000        0.5000000000
Pb        0.5000000000        0.5000000000        0.5000000000
I         0.1830127019        0.3169872981        0.5000000000
I         0.8169872981        0.6830127019        0.5000000000
I         0.3169872981        0.8169872981        0.5000000000
I         0.6830127019        0.1830127019        0.5000000000
I         0.0000000000        0.0000000000        0.6988085253
I         0.0000000000        0.0000000000        0.3011914747
I         0.5000000000        0.5000000000        0.6988085253
I         0.5000000000        0.5000000000        0.3011914747
Cs        0.5000000000        0.0000000000        0.6884058553
Cs        0.0000000000        0.5000000000        0.6883968958
Cs        0.5000000000        0.0000000000        0.3115941447
Cs        0.0000000000        0.5000000000        0.3116031042

#------------------------------------------------------

data_17.5_0

_symmetry_space_group_name_H-M    'P 1'
_cell_length_a                    8.640924755 
_cell_length_b                    8.640924755
_cell_length_c                    16.0 
_cell_angle_alpha                 90
_cell_angle_beta                  90
_cell_angle_gamma                 90
_symmetry_Int_Tables_number       1

loop_
  _atom_site_type_symbol
  _atom_site_fract_x
  _atom_site_fract_y
  _atom_site_fract_z
Pb        0.0000000000        0.0000000000        0.5000000000
Pb        0.5000000000        0.5000000000        0.5000000000
I         0.1711753028        0.3288246972        0.5000000000
I         0.8288246972        0.6711753028        0.5000000000
I         0.3288246972        0.8288246972        0.5000000000
I         0.6711753028        0.1711753028        0.5000000000
I         0.0000000000        0.0000000000        0.7000671326
I         0.0000000000        0.0000000000        0.2999328674
I         0.5000000000        0.5000000000        0.7000671326
I         0.5000000000        0.5000000000        0.2999328674
Cs        0.5000000000        0.0000000000        0.6943864441
Cs        0.0000000000        0.5000000000        0.6943774846
Cs        0.5000000000        0.0000000000        0.3056135559
Cs        0.0000000000        0.5000000000        0.3056225154

#------------------------------------------------------

data_20_0

_symmetry_space_group_name_H-M    'P 1'
_cell_length_a                    8.5701995 
_cell_length_b                    8.5701995
_cell_length_c                    16.0 
_cell_angle_alpha                 90
_cell_angle_beta                  90
_cell_angle_gamma                 90
_symmetry_Int_Tables_number       1

loop_
  _atom_site_type_symbol
  _atom_site_fract_x
  _atom_site_fract_y
  _atom_site_fract_z
Pb        0.0000000000        0.0000000000        0.5000000000
Pb        0.5000000000        0.5000000000        0.5000000000
I         0.1590074414        0.3409925586        0.5000000000
I         0.8409925586        0.6590074414        0.5000000000
I         0.3409925586        0.8409925586        0.5000000000
I         0.6590074414        0.1590074414        0.5000000000
I         0.0000000000        0.0000000000        0.7011781953
I         0.0000000000        0.0000000000        0.2988218047
I         0.5000000000        0.5000000000        0.7011781953
I         0.5000000000        0.5000000000        0.2988218047
Cs        0.5000000000        0.0000000000        0.6996263432
Cs        0.0000000000        0.5000000000        0.6996173837
Cs        0.5000000000        0.0000000000        0.3003736568
Cs        0.0000000000        0.5000000000        0.3003826163

#------------------------------------------------------

data_2.5_2.5

_symmetry_space_group_name_H-M    'P 1'
_cell_length_a                    8.835072314 
_cell_length_b                    9.118280074
_cell_length_c                    16.0 
_cell_angle_alpha                 90
_cell_angle_beta                  90
_cell_angle_gamma                 90
_symmetry_Int_Tables_number       1

loop_
  _atom_site_type_symbol
  _atom_site_fract_x
  _atom_site_fract_y
  _atom_site_fract_z
Pb        0.0000000000        0.0000000000        0.5000000000
Pb        0.5000000000        0.5000000000        0.5000000000
I         0.2421648364        0.2573560120        0.4937766215
I         0.7578351636        0.7426439880        0.5062233785
I         0.2578351636        0.7573560120        0.5062233785
I         0.7421648364        0.2426439880        0.4937766215
I        -0.0004761159        0.0151916387        0.6983830722
I         0.0004761159       -0.0151916387        0.3016169278
I         0.4995238841        0.4848083613        0.6983830722
I         0.5004761159        0.5151916387        0.3016169278
Cs        0.4873818744        0.0354115170        0.6638009198
Cs       -0.0126181256        0.4645884830        0.6637919603
Cs        0.5126181256       -0.0354115170        0.3361990802
Cs        0.0126181256        0.5354115170        0.3362080397

#------------------------------------------------------

data_5_2.5

_symmetry_space_group_name_H-M    'P 1'
_cell_length_a                    8.854189333 
_cell_length_b                    9.126752107
_cell_length_c                    16.0 
_cell_angle_alpha                 90
_cell_angle_beta                  90
_cell_angle_gamma                 90
_symmetry_Int_Tables_number       1

loop_
  _atom_site_type_symbol
  _atom_site_fract_x
  _atom_site_fract_y
  _atom_site_fract_z
Pb        0.0000000000        0.0000000000        0.5000000000
Pb        0.5000000000        0.5000000000        0.5000000000
I         0.2289607587        0.2698013671        0.4937529925
I         0.7710392413        0.7301986329        0.5062470075
I         0.2710392413        0.7698013671        0.5062470075
I         0.7289607587        0.2301986329        0.4937529925
I        -0.0012792453        0.0152007065        0.6992551567
I         0.0012792453       -0.0152007065        0.3007448433
I         0.4987207547        0.4847992935        0.6992551567
I         0.5012792453        0.5152007065        0.3007448433
Cs        0.4674668531        0.0452711337        0.6663081486
Cs       -0.0325331469        0.4547288663        0.6662991891
Cs        0.5325331469       -0.0452711337        0.3336918514
Cs        0.0325331469        0.5452711337        0.3337008109

#------------------------------------------------------

data_7.5_2.5

_symmetry_space_group_name_H-M    'P 1'
_cell_length_a                    8.781725904 
_cell_length_b                    9.159979001
_cell_length_c                    16.0 
_cell_angle_alpha                 90
_cell_angle_beta                  90
_cell_angle_gamma                 90
_symmetry_Int_Tables_number       1

loop_
  _atom_site_type_symbol
  _atom_site_fract_x
  _atom_site_fract_y
  _atom_site_fract_z
Pb        0.0000000000        0.0000000000        0.5000000000
Pb        0.5000000000        0.5000000000        0.5000000000
I         0.2166840125        0.2806212906        0.4937002479
I         0.7833159875        0.7193787094        0.5062997521
I         0.2833159875        0.7806212906        0.5062997521
I         0.7166840125        0.2193787094        0.4937002479
I        -0.0020141813        0.0151142250        0.6997943098
I         0.0020141813       -0.0151142250        0.3002056902
I         0.4979858187        0.4848857750        0.6997943098
I         0.5020141813        0.5151142250        0.3002056902
Cs        0.4585524486        0.0519982409        0.6702994204
Cs       -0.0414475514        0.4480017591        0.6702904609
Cs        0.5414475514       -0.0519982409        0.3297005796
Cs        0.0414475514        0.5519982409        0.3297095391

#------------------------------------------------------

data_10_2.5

_symmetry_space_group_name_H-M    'P 1'
_cell_length_a                    8.736324663 
_cell_length_b                    9.145184305
_cell_length_c                    16.0 
_cell_angle_alpha                 90
_cell_angle_beta                  90
_cell_angle_gamma                 90
_symmetry_Int_Tables_number       1

loop_
  _atom_site_type_symbol
  _atom_site_fract_x
  _atom_site_fract_y
  _atom_site_fract_z
Pb        0.0000000000        0.0000000000        0.5000000000
Pb        0.5000000000        0.5000000000        0.5000000000
I         0.2046235041        0.2914098408        0.4936680450
I         0.7953764959        0.7085901592        0.5063319550
I         0.2953764959        0.7914098408        0.5063319550
I         0.7046235041        0.2085901592        0.4936680450
I        -0.0027386532        0.0150885010        0.7004738271
I         0.0027386532       -0.0150885010        0.2995261729
I         0.4972613468        0.4849114990        0.7004738271
I         0.5027386532        0.5150885010        0.2995261729
Cs        0.4544737238        0.0550352944        0.6744932819
Cs       -0.0455262762        0.4449647056        0.6744843224
Cs        0.5455262762       -0.0550352944        0.3255067181
Cs        0.0455262762        0.5550352944        0.3255156776

#------------------------------------------------------

data_12.5_2.5

_symmetry_space_group_name_H-M    'P 1'
_cell_length_a                    8.641934557 
_cell_length_b                    9.09539133
_cell_length_c                    16.0 
_cell_angle_alpha                 90
_cell_angle_beta                  90
_cell_angle_gamma                 90
_symmetry_Int_Tables_number       1

loop_
  _atom_site_type_symbol
  _atom_site_fract_x
  _atom_site_fract_y
  _atom_site_fract_z
Pb        0.0000000000        0.0000000000        0.5000000000
Pb        0.5000000000        0.5000000000        0.5000000000
I         0.1922946381        0.3020949153        0.4936476331
I         0.8077053619        0.6979050847        0.5063523669
I         0.3077053619        0.8020949153        0.5063523669
I         0.6922946381        0.1979050847        0.4936476331
I        -0.0034738159        0.0150497970        0.7006041841
I         0.0034738159       -0.0150497970        0.2993958159
I         0.4965261841        0.4849502030        0.7006041841
I         0.5034738159        0.5150497970        0.2993958159
Cs        0.4600513608        0.0522680072        0.6806277666
Cs       -0.0399486392        0.4477319928        0.6806188071
Cs        0.5399486392       -0.0522680072        0.3193722334
Cs        0.0399486392        0.5522680072        0.3193811929

#------------------------------------------------------

data_15_2.5

_symmetry_space_group_name_H-M    'P 1'
_cell_length_a                    8.506529469 
_cell_length_b                    8.991352218
_cell_length_c                    16.0 
_cell_angle_alpha                 90
_cell_angle_beta                  90
_cell_angle_gamma                 90
_symmetry_Int_Tables_number       1

loop_
  _atom_site_type_symbol
  _atom_site_fract_x
  _atom_site_fract_y
  _atom_site_fract_z
Pb        0.0000000000        0.0000000000        0.5000000000
Pb        0.5000000000        0.5000000000        0.5000000000
I         0.1797454910        0.3129140856        0.4936556874
I         0.8202545090        0.6870859144        0.5063443126
I         0.3202545090        0.8129140856        0.5063443126
I         0.6797454910        0.1870859144        0.4936556874
I        -0.0042211991        0.0150210969        0.6999677631
I         0.0042211991       -0.0150210969        0.3000322369
I         0.4957788009        0.4849789031        0.6999677631
I         0.5042211991        0.5150210969        0.3000322369
Cs        0.4794823632        0.0402804634        0.6885891864
Cs       -0.0205176368        0.4597195366        0.6885802269
Cs        0.5205176368       -0.0402804634        0.3114108136
Cs        0.0205176368        0.5402804634        0.3114197731

#------------------------------------------------------

data_17.5_2.5

_symmetry_space_group_name_H-M    'P 1'
_cell_length_a                    8.382057653 
_cell_length_b                    9.01528624
_cell_length_c                    16.0 
_cell_angle_alpha                 90
_cell_angle_beta                  90
_cell_angle_gamma                 90
_symmetry_Int_Tables_number       1

loop_
  _atom_site_type_symbol
  _atom_site_fract_x
  _atom_site_fract_y
  _atom_site_fract_z
Pb        0.0000000000        0.0000000000        0.5000000000
Pb        0.5000000000        0.5000000000        0.5000000000
I         0.1657006095        0.3228730055        0.4935545796
I         0.8342993905        0.6771269945        0.5064454204
I         0.3342993905        0.8228730055        0.5064454204
I         0.6657006095        0.1771269945        0.4935545796
I        -0.0050234470        0.0148976372        0.7014848588
I         0.0050234470       -0.0148976372        0.2985151412
I         0.4949765530        0.4851023628        0.7014848588
I         0.5050234470        0.5148976372        0.2985151412
Cs        0.4806592710        0.0395110196        0.6929663732
Cs       -0.0193407290        0.4604889804        0.6929663732
Cs        0.5193407290       -0.0395110196        0.3070336268
Cs        0.0193407290        0.5395110196        0.3070336268

#------------------------------------------------------

data_20_2.5

_symmetry_space_group_name_H-M    'P 1'
_cell_length_a                    8.27998596 
_cell_length_b                    8.988382973
_cell_length_c                    16.0 
_cell_angle_alpha                 90
_cell_angle_beta                  90
_cell_angle_gamma                 90
_symmetry_Int_Tables_number       1

loop_
  _atom_site_type_symbol
  _atom_site_fract_x
  _atom_site_fract_y
  _atom_site_fract_z
Pb        0.0000000000        0.0000000000        0.5000000000
Pb        0.5000000000        0.5000000000        0.5000000000
I         0.1516584379        0.3334513115        0.4934779356
I         0.8483415621        0.6665486885        0.5065220644
I         0.3483415621        0.8334513115        0.5065220644
I         0.6516584379        0.1665486885        0.4934779356
I        -0.0058352618        0.0148341701        0.7030121848
I         0.0058352618       -0.0148341701        0.2969878152
I         0.4941647382        0.4851658299        0.7030121848
I         0.5058352618        0.5148341701        0.2969878152
Cs        0.4819737743        0.0388178669        0.6984520252
Cs       -0.0180262257        0.4611821331        0.6984520252
Cs        0.5180262257       -0.0388178669        0.3015479748
Cs        0.0180262257        0.5388178669        0.3015479748

#------------------------------------------------------

data_5_5

_symmetry_space_group_name_H-M    'P 1'
_cell_length_a                    8.679468932 
_cell_length_b                    9.292094574
_cell_length_c                    16.0 
_cell_angle_alpha                 90
_cell_angle_beta                  90
_cell_angle_gamma                 90
_symmetry_Int_Tables_number       1

loop_
  _atom_site_type_symbol
  _atom_site_fract_x
  _atom_site_fract_y
  _atom_site_fract_z
Pb        0.0000000000        0.0000000000        0.5000000000
Pb        0.5000000000        0.5000000000        0.5000000000
I         0.2340486837        0.2639173193        0.4872750710
I         0.7659513163        0.7360826807        0.5127249290
I         0.2659513163        0.7639173193        0.5127249290
I         0.7340486837        0.2360826807        0.4872750710
I        -0.0019062849        0.0298766074        0.6986749333
I         0.0019062849       -0.0298766074        0.3013250667
I         0.4980937151        0.4701233926        0.6986749333
I         0.5019062849        0.5298766074        0.3013250667
Cs        0.4868036181        0.0468977181        0.6643384229
Cs       -0.0131963819        0.4531022819        0.6643294634
Cs        0.5131963819       -0.0468977181        0.3356615771
Cs        0.0131963819        0.5468977181        0.3356705366

#------------------------------------------------------

data_7.5_5

_symmetry_space_group_name_H-M    'P 1'
_cell_length_a                    8.607383394 
_cell_length_b                    9.342466827
_cell_length_c                    16.0 
_cell_angle_alpha                 90
_cell_angle_beta                  90
_cell_angle_gamma                 90
_symmetry_Int_Tables_number       1

loop_
  _atom_site_type_symbol
  _atom_site_fract_x
  _atom_site_fract_y
  _atom_site_fract_z
Pb        0.0000000000        0.0000000000        0.5000000000
Pb        0.5000000000        0.5000000000        0.5000000000
I         0.2188976099        0.2764005473        0.4871451309
I         0.7811023901        0.7235994527        0.5128548691
I         0.2811023901        0.7764005473        0.5128548691
I         0.7188976099        0.2235994527        0.4871451309
I        -0.0036934741        0.0296880244        0.6994368396
I         0.0036934741       -0.0296880244        0.3005631604
I         0.4963065259        0.4703119756        0.6994368396
I         0.5036934741        0.5296880244        0.3005631604
Cs        0.4779444647        0.0521762760        0.6683443816
Cs       -0.0220555353        0.4478237240        0.6683354221
Cs        0.5220555353       -0.0521762760        0.3316556184
Cs        0.0220555353        0.5521762760        0.3316645779

#------------------------------------------------------

data_10_5

_symmetry_space_group_name_H-M    'P 1'
_cell_length_a                    8.512256854 
_cell_length_b                    9.369374016
_cell_length_c                    16.0 
_cell_angle_alpha                 90
_cell_angle_beta                  90
_cell_angle_gamma                 90
_symmetry_Int_Tables_number       1

loop_
  _atom_site_type_symbol
  _atom_site_fract_x
  _atom_site_fract_y
  _atom_site_fract_z
Pb        0.0000000000        0.0000000000        0.5000000000
Pb        0.5000000000        0.5000000000        0.5000000000
I         0.2049642502        0.2871728351        0.4870215661
I         0.7950357498        0.7128271649        0.5129784339
I         0.2950357498        0.7871728351        0.5129784339
I         0.7049642502        0.2128271649        0.4870215661
I        -0.0053142493        0.0295001714        0.7000798055
I         0.0053142493       -0.0295001714        0.2999201945
I         0.4946857507        0.4704998286        0.7000798055
I         0.5053142493        0.5295001714        0.2999201945
Cs        0.4786697109        0.0512529784        0.6738355911
Cs       -0.0213302891        0.4487470216        0.6738355911
Cs        0.5213302891       -0.0512529784        0.3261644089
Cs        0.0213302891        0.5512529784        0.3261644089

#------------------------------------------------------

data_12.5_5

_symmetry_space_group_name_H-M    'P 1'
_cell_length_a                    8.404599117 
_cell_length_b                    9.374089511
_cell_length_c                    16.0 
_cell_angle_alpha                 90
_cell_angle_beta                  90
_cell_angle_gamma                 90
_symmetry_Int_Tables_number       1

loop_
  _atom_site_type_symbol
  _atom_site_fract_x
  _atom_site_fract_y
  _atom_site_fract_z
Pb        0.0000000000        0.0000000000        0.5000000000
Pb        0.5000000000        0.5000000000        0.5000000000
I         0.1910367915        0.2973976623        0.4869021527
I         0.8089632085        0.7026023377        0.5130978473
I         0.3089632085        0.7973976623        0.5130978473
I         0.6910367915        0.2026023377        0.4869021527
I        -0.0069166687        0.0293262056        0.7007299717
I         0.0069166687       -0.0293262056        0.2992700283
I         0.4930833313        0.4706737944        0.7007299717
I         0.5069166687        0.5293262056        0.2992700283
Cs        0.4796677985        0.0511342334        0.6795205916
Cs       -0.0203322015        0.4488657666        0.6795205916
Cs        0.5203322015       -0.0511342334        0.3204794084
Cs        0.0203322015        0.5511342334        0.3204794084

#------------------------------------------------------

data_15_5

_symmetry_space_group_name_H-M    'P 1'
_cell_length_a                    8.289852297 
_cell_length_b                    9.360517224
_cell_length_c                    16.0 
_cell_angle_alpha                 90
_cell_angle_beta                  90
_cell_angle_gamma                 90
_symmetry_Int_Tables_number       1

loop_
  _atom_site_type_symbol
  _atom_site_fract_x
  _atom_site_fract_y
  _atom_site_fract_z
Pb        0.0000000000        0.0000000000        0.5000000000
Pb        0.5000000000        0.5000000000        0.5000000000
I         0.1767644924        0.3073628730        0.4867667619
I         0.8232355076        0.6926371270        0.5132332381
I         0.3232355076        0.8073628730        0.5132332381
I         0.6767644924        0.1926371270        0.4867667619
I        -0.0085419262        0.0291591007        0.7016492821
I         0.0085419262       -0.0291591007        0.2983507179
I         0.4914580738        0.4708408993        0.7016492821
I         0.5085419262        0.5291591007        0.2983507179
Cs        0.4816772589        0.0510532980        0.6852206753
Cs       -0.0183227411        0.4489467020        0.6852206753
Cs        0.5183227411       -0.0510532980        0.3147793247
Cs        0.0183227411        0.5510532980        0.3147793247

#------------------------------------------------------

data_17.5_5

_symmetry_space_group_name_H-M    'P 1'
_cell_length_a                    8.163643042 
_cell_length_b                    9.347615561
_cell_length_c                    16.0 
_cell_angle_alpha                 90
_cell_angle_beta                  90
_cell_angle_gamma                 90
_symmetry_Int_Tables_number       1

loop_
  _atom_site_type_symbol
  _atom_site_fract_x
  _atom_site_fract_y
  _atom_site_fract_z
Pb        0.0000000000        0.0000000000        0.5000000000
Pb        0.5000000000        0.5000000000        0.5000000000
I         0.1618853014        0.3171411660        0.4866223103
I         0.8381146986        0.6828588340        0.5133776897
I         0.3381146986        0.8171411660        0.5133776897
I         0.6618853014        0.1828588340        0.4866223103
I        -0.0102161079        0.0289852546        0.7026350955
I         0.0102161079       -0.0289852546        0.2973649045
I         0.4897838921        0.4710147454        0.7026350955
I         0.5102161079        0.5289852546        0.2973649045
Cs        0.4822516665        0.0513671708        0.6908721763
Cs       -0.0177483335        0.4486328292        0.6908721763
Cs        0.5177483335       -0.0513671708        0.3091278237
Cs        0.0177483335        0.5513671708        0.3091278237

#------------------------------------------------------

data_20_5

_symmetry_space_group_name_H-M    'P 1'
_cell_length_a                    8.057016533 
_cell_length_b                    9.317421485
_cell_length_c                    16.0 
_cell_angle_alpha                 90
_cell_angle_beta                  90
_cell_angle_gamma                 90
_symmetry_Int_Tables_number       1

loop_
  _atom_site_type_symbol
  _atom_site_fract_x
  _atom_site_fract_y
  _atom_site_fract_z
Pb        0.0000000000        0.0000000000        0.5000000000
Pb        0.5000000000        0.5000000000        0.5000000000
I         0.1466686063        0.3271382264        0.4864480655
I         0.8533313937        0.6728617736        0.5135519345
I         0.3533313937        0.8271382264        0.5135519345
I         0.6466686063        0.1728617736        0.4864480655
I        -0.0119278946        0.0288583513        0.7043756899
I         0.0119278946       -0.0288583513        0.2956243101
I         0.4880721054        0.4711416487        0.7043756899
I         0.5119278946        0.5288583513        0.2956243101
Cs        0.4880204929        0.0508263130        0.6960676528
Cs       -0.0119795071        0.4491736870        0.6960676528
Cs        0.5119795071       -0.0508263130        0.3039323472
Cs        0.0119795071        0.5508263130        0.3039323472

#------------------------------------------------------

data_7.5_7.5

_symmetry_space_group_name_H-M    'P 1'
_cell_length_a                    8.525614861 
_cell_length_b                    9.44444453
_cell_length_c                    16.0 
_cell_angle_alpha                 90
_cell_angle_beta                  90
_cell_angle_gamma                 90
_symmetry_Int_Tables_number       1

loop_
  _atom_site_type_symbol
  _atom_site_fract_x
  _atom_site_fract_y
  _atom_site_fract_z
Pb        0.0000000000        0.0000000000        0.5000000000
Pb        0.5000000000        0.5000000000        0.5000000000
I         0.2256846732        0.2698142980        0.4804973762
I         0.7743153268        0.7301857020        0.5195026238
I         0.2743153268        0.7698142980        0.5195026238
I         0.7256846732        0.2301857020        0.4804973762
I        -0.0042960248        0.0441699267        0.6988023474
I         0.0042960248       -0.0441699267        0.3011976526
I         0.4957039752        0.4558300733        0.6988023474
I         0.5042960248        0.5441699267        0.3011976526
Cs        0.4949012009        0.0478587829        0.6650116053
Cs       -0.0050987991        0.4521412171        0.6650026458
Cs        0.5050987991       -0.0478587829        0.3349883947
Cs        0.0050987991        0.5478587829        0.3349973542

#------------------------------------------------------

data_10_7.5

_symmetry_space_group_name_H-M    'P 1'
_cell_length_a                    8.496618412 
_cell_length_b                    9.462349081
_cell_length_c                    16.0 
_cell_angle_alpha                 90
_cell_angle_beta                  90
_cell_angle_gamma                 90
_symmetry_Int_Tables_number       1

loop_
  _atom_site_type_symbol
  _atom_site_fract_x
  _atom_site_fract_y
  _atom_site_fract_z
Pb        0.0000000000        0.0000000000        0.5000000000
Pb        0.5000000000        0.5000000000        0.5000000000
I         0.2093748861        0.2827558511        0.4803291592
I         0.7906251139        0.7172441489        0.5196708408
I         0.2906251139        0.7827558511        0.5196708408
I         0.7093748861        0.2172441489        0.4803291592
I        -0.0071607809        0.0440662204        0.7000462951
I         0.0071607809       -0.0440662204        0.2999537049
I         0.4928392191        0.4559337796        0.7000462951
I         0.5071607809        0.5440662204        0.2999537049
Cs        0.4843464838        0.0498059169        0.6697303751
Cs       -0.0156535162        0.4501940831        0.6697303751
Cs        0.5156535162       -0.0498059169        0.3302696249
Cs        0.0156535162        0.5498059169        0.3302696249

#------------------------------------------------------

data_12.5_7.5

_symmetry_space_group_name_H-M    'P 1'
_cell_length_a                    8.380910582 
_cell_length_b                    9.479095009
_cell_length_c                    16.0 
_cell_angle_alpha                 90
_cell_angle_beta                  90
_cell_angle_gamma                 90
_symmetry_Int_Tables_number       1

loop_
  _atom_site_type_symbol
  _atom_site_fract_x
  _atom_site_fract_y
  _atom_site_fract_z
Pb        0.0000000000        0.0000000000        0.5000000000
Pb        0.5000000000        0.5000000000        0.5000000000
I         0.1941385062        0.2936819759        0.4801070161
I         0.8058614938        0.7063180241        0.5198929839
I         0.3058614938        0.7936819759        0.5198929839
I         0.6941385062        0.2063180241        0.4801070161
I        -0.0097805260        0.0437713232        0.7009515652
I         0.0097805260       -0.0437713232        0.2990484348
I         0.4902194740        0.4562286768        0.7009515652
I         0.5097805260        0.5437713232        0.2990484348
Cs        0.4891922377        0.0510903237        0.6757996845
Cs       -0.0108077623        0.4489096763        0.6757996845
Cs        0.5108077623       -0.0510903237        0.3242003155
Cs        0.0108077623        0.5510903237        0.3242003155

#------------------------------------------------------

data_15_7.5

_symmetry_space_group_name_H-M    'P 1'
_cell_length_a                    8.263539635 
_cell_length_b                    9.485139678
_cell_length_c                    16.0 
_cell_angle_alpha                 90
_cell_angle_beta                  90
_cell_angle_gamma                 90
_symmetry_Int_Tables_number       1

loop_
  _atom_site_type_symbol
  _atom_site_fract_x
  _atom_site_fract_y
  _atom_site_fract_z
Pb        0.0000000000        0.0000000000        0.5000000000
Pb        0.5000000000        0.5000000000        0.5000000000
I         0.1789295615        0.3039418856        0.4798971555
I         0.8210704385        0.6960581144        0.5201028445
I         0.3210704385        0.8039418856        0.5201028445
I         0.6789295615        0.1960581144        0.4798971555
I        -0.0123636809        0.0434909406        0.7017706996
I         0.0123636809       -0.0434909406        0.2982293004
I         0.4876363191        0.4565090594        0.7017706996
I         0.5123636809        0.5434909406        0.2982293004
Cs        0.4936937712        0.0512435683        0.6819284225
Cs       -0.0063062288        0.4487564317        0.6819284225
Cs        0.5063062288       -0.0512435683        0.3180715775
Cs        0.0063062288        0.5512435683        0.3180715775

#------------------------------------------------------

data_17.5_7.5

_symmetry_space_group_name_H-M    'P 1'
_cell_length_a                    8.14406839 
_cell_length_b                    9.455211918
_cell_length_c                    16.0 
_cell_angle_alpha                 90
_cell_angle_beta                  90
_cell_angle_gamma                 90
_symmetry_Int_Tables_number       1

loop_
  _atom_site_type_symbol
  _atom_site_fract_x
  _atom_site_fract_y
  _atom_site_fract_z
Pb        0.0000000000        0.0000000000        0.5000000000
Pb        0.5000000000        0.5000000000        0.5000000000
I         0.1636143519        0.3140887625        0.4797067835
I         0.8363856481        0.6859112375        0.5202932165
I         0.3363856481        0.8140887625        0.5202932165
I         0.6636143519        0.1859112375        0.4797067835
I        -0.0149554608        0.0432810921        0.7026986635
I         0.0149554608       -0.0432810921        0.2973013365
I         0.4850445392        0.4567189079        0.7026986635
I         0.5149554608        0.5432810921        0.2973013365
Cs        0.4948448142        0.0515519447        0.6889118137
Cs       -0.0051551858        0.4484480553        0.6889118137
Cs        0.5051551858       -0.0515519447        0.3110881863
Cs        0.0051551858        0.5515519447        0.3110881863

#------------------------------------------------------

data_20_7.5

_symmetry_space_group_name_H-M    'P 1'
_cell_length_a                    8.056888429 
_cell_length_b                    9.365657769
_cell_length_c                    16.0 
_cell_angle_alpha                 90
_cell_angle_beta                  90
_cell_angle_gamma                 90
_symmetry_Int_Tables_number       1

loop_
  _atom_site_type_symbol
  _atom_site_fract_x
  _atom_site_fract_y
  _atom_site_fract_z
Pb        0.0000000000        0.0000000000        0.5000000000
Pb        0.5000000000        0.5000000000        0.5000000000
I         0.1488147492        0.3249294913        0.4796023985
I         0.8511852508        0.6750705087        0.5203976015
I         0.3511852508        0.8249294913        0.5203976015
I         0.6488147492        0.1750705087        0.4796023985
I        -0.0175107934        0.0432641944        0.7036617678
I         0.0175107934       -0.0432641944        0.2963382322
I         0.4824892066        0.4567358056        0.7036617678
I         0.5175107934        0.5432641944        0.2963382322
Cs        0.4897456980        0.0508561049        0.6958927734
Cs       -0.0102543020        0.4491438951        0.6958927734
Cs        0.5102543020       -0.0508561049        0.3041072266
Cs        0.0102543020        0.5508561049        0.3041072266

#------------------------------------------------------

data_10_10

_symmetry_space_group_name_H-M    'P 1'
_cell_length_a                    8.413410291 
_cell_length_b                    9.539915614
_cell_length_c                    16.0 
_cell_angle_alpha                 90
_cell_angle_beta                  90
_cell_angle_gamma                 90
_symmetry_Int_Tables_number       1

loop_
  _atom_site_type_symbol
  _atom_site_fract_x
  _atom_site_fract_y
  _atom_site_fract_z
Pb        0.0000000000        0.0000000000        0.5000000000
Pb        0.5000000000        0.5000000000        0.5000000000
I         0.2172240474        0.2754923806        0.4735413884
I         0.7827759526        0.7245076194        0.5264586116
I         0.2827759526        0.7754923806        0.5264586116
I         0.7172240474        0.2245076194        0.4735413884
I        -0.0076547147        0.0583866685        0.6987481959
I         0.0076547147       -0.0583866685        0.3012518041
I         0.4923452853        0.4416133315        0.6987481959
I         0.5076547147        0.5583866685        0.3012518041
Cs        0.5034043340        0.0477739598        0.6661012329
Cs        0.0034043340        0.4522260402        0.6661012329
Cs        0.4965956660       -0.0477739598        0.3338987671
Cs       -0.0034043340        0.5477739598        0.3338987671

#------------------------------------------------------

data_12.5_10

_symmetry_space_group_name_H-M    'P 1'
_cell_length_a                    8.321745195 
_cell_length_b                    9.550659389
_cell_length_c                    16.0 
_cell_angle_alpha                 90
_cell_angle_beta                  90
_cell_angle_gamma                 90
_symmetry_Int_Tables_number       1

loop_
  _atom_site_type_symbol
  _atom_site_fract_x
  _atom_site_fract_y
  _atom_site_fract_z
Pb        0.0000000000        0.0000000000        0.5000000000
Pb        0.5000000000        0.5000000000        0.5000000000
I         0.1995410095        0.2883089873        0.4732830774
I         0.8004589905        0.7116910127        0.5267169226
I         0.3004589905        0.7883089873        0.5267169226
I         0.6995410095        0.2116910127        0.4732830774
I        -0.0117238939        0.0580862489        0.6996559297
I         0.0117238939       -0.0580862489        0.3003440703
I         0.4882761061        0.4419137511        0.6996559297
I         0.5117238939        0.5580862489        0.3003440703
Cs        0.5021042272        0.0494444293        0.6735852961
Cs        0.0021042272        0.4505555707        0.6735852961
Cs        0.4978957728       -0.0494444293        0.3264147039
Cs       -0.0021042272        0.5494444293        0.3264147039

#------------------------------------------------------

data_15_10

_symmetry_space_group_name_H-M    'P 1'
_cell_length_a                    8.226050334 
_cell_length_b                    9.572776052
_cell_length_c                    16.0 
_cell_angle_alpha                 90
_cell_angle_beta                  90
_cell_angle_gamma                 90
_symmetry_Int_Tables_number       1

loop_
  _atom_site_type_symbol
  _atom_site_fract_x
  _atom_site_fract_y
  _atom_site_fract_z
Pb        0.0000000000        0.0000000000        0.5000000000
Pb        0.5000000000        0.5000000000        0.5000000000
I         0.1830454173        0.2994409987        0.4729365208
I         0.8169545827        0.7005590013        0.5270634792
I         0.3169545827        0.7994409987        0.5270634792
I         0.6830454173        0.2005590013        0.4729365208
I        -0.0154659970        0.0577480897        0.7010683431
I         0.0154659970       -0.0577480897        0.2989316569
I         0.4845340030        0.4422519103        0.7010683431
I         0.5154659970        0.5577480897        0.2989316569
Cs        0.5069868755        0.0489876482        0.6799894542
Cs        0.0069868755        0.4510123518        0.6799894542
Cs        0.4930131245       -0.0489876482        0.3200105458
Cs       -0.0069868755        0.5489876482        0.3200105458

#------------------------------------------------------

data_17.5_10

_symmetry_space_group_name_H-M    'P 1'
_cell_length_a                    8.146002714 
_cell_length_b                    9.547777558
_cell_length_c                    16.0 
_cell_angle_alpha                 90
_cell_angle_beta                  90
_cell_angle_gamma                 90
_symmetry_Int_Tables_number       1

loop_
  _atom_site_type_symbol
  _atom_site_fract_x
  _atom_site_fract_y
  _atom_site_fract_z
Pb        0.0000000000        0.0000000000        0.5000000000
Pb        0.5000000000        0.5000000000        0.5000000000
I         0.1671327265        0.3103231928        0.4726614869
I         0.8328672735        0.6896768072        0.5273385131
I         0.3328672735        0.8103231928        0.5273385131
I         0.6671327265        0.1896768072        0.4726614869
I        -0.0190849589        0.0575768879        0.7025095581
I         0.0190849589       -0.0575768879        0.2974904419
I         0.4809150411        0.4424231121        0.7025095581
I         0.5190849589        0.5575768879        0.2974904419
Cs        0.4988343224        0.0489416730        0.6881894322
Cs       -0.0011656776        0.4510583270        0.6881894322
Cs        0.5011656776       -0.0489416730        0.3118105678
Cs        0.0011656776        0.5489416730        0.3118105678

#------------------------------------------------------

data_20_10

_symmetry_space_group_name_H-M    'P 1'
_cell_length_a                    8.036126265 
_cell_length_b                    9.493579784
_cell_length_c                    16.0 
_cell_angle_alpha                 90
_cell_angle_beta                  90
_cell_angle_gamma                 90
_symmetry_Int_Tables_number       1

loop_
  _atom_site_type_symbol
  _atom_site_fract_x
  _atom_site_fract_y
  _atom_site_fract_z
Pb        0.0000000000        0.0000000000        0.5000000000
Pb        0.5000000000        0.5000000000        0.5000000000
I         0.1511836846        0.3210644206        0.4724017807
I         0.8488163154        0.6789355794        0.5275982193
I         0.3488163154        0.8210644206        0.5275982193
I         0.6511836846        0.1789355794        0.4724017807
I        -0.0227011927        0.0574328051        0.7039217451
I         0.0227011927       -0.0574328051        0.2960782549
I         0.4772988073        0.4425671949        0.7039217451
I         0.5227011927        0.5574328051        0.2960782549
Cs        0.4952108282        0.0489920605        0.6960370225
Cs       -0.0047891718        0.4510079395        0.6960370225
Cs        0.5047891718       -0.0489920605        0.3039629775
Cs        0.0047891718        0.5489920605        0.3039629775

#------------------------------------------------------

data_12.5_12.5

_symmetry_space_group_name_H-M    'P 1'
_cell_length_a                    8.578423038 
_cell_length_b                    9.398320335
_cell_length_c                    16.0 
_cell_angle_alpha                 90
_cell_angle_beta                  90
_cell_angle_gamma                 90
_symmetry_Int_Tables_number       1

loop_
  _atom_site_type_symbol
  _atom_site_fract_x
  _atom_site_fract_y
  _atom_site_fract_z
Pb        0.0000000000        0.0000000000        0.5000000000
Pb        0.5000000000        0.5000000000        0.5000000000
I         0.2095885253        0.2836149969        0.4670915618
I         0.7904114747        0.7163850031        0.5329084382
I         0.2904114747        0.7836149969        0.5329084382
I         0.7095885253        0.2163850031        0.4670915618
I        -0.0119958768        0.0742108330        0.6987577606
I         0.0119958768       -0.0742108330        0.3012422394
I         0.4880041232        0.4257891670        0.6987577606
I         0.5119958768        0.5742108330        0.3012422394
Cs        0.5371955377        0.0334760487        0.6685153245
Cs        0.0371955377        0.4665239513        0.6685153245
Cs        0.4628044623       -0.0334760487        0.3314846755
Cs       -0.0371955377        0.5334760487        0.3314846755

#------------------------------------------------------

data_15_12.5

_symmetry_space_group_name_H-M    'P 1'
_cell_length_a                    8.477746303 
_cell_length_b                    9.453253857
_cell_length_c                    16.0 
_cell_angle_alpha                 90
_cell_angle_beta                  90
_cell_angle_gamma                 90
_symmetry_Int_Tables_number       1

loop_
  _atom_site_type_symbol
  _atom_site_fract_x
  _atom_site_fract_y
  _atom_site_fract_z
Pb        0.0000000000        0.0000000000        0.5000000000
Pb        0.5000000000        0.5000000000        0.5000000000
I         0.1918219702        0.2965207062        0.4664984423
I         0.8081780298        0.7034792938        0.5335015577
I         0.3081780298        0.7965207062        0.5335015577
I         0.6918219702        0.2034792938        0.4664984423
I        -0.0171213426        0.0735730594        0.7006011108
I         0.0171213426       -0.0735730594        0.2993988892
I         0.4828786574        0.4264269406        0.7006011108
I         0.5171213426        0.5735730594        0.2993988892
Cs        0.5344496927        0.0375950472        0.6760674666
Cs        0.0344496927        0.4624049528        0.6760674666
Cs        0.4655503073       -0.0375950472        0.3239325334
Cs       -0.0344496927        0.5375950472        0.3239325334

#------------------------------------------------------

data_17.5_12.5

_symmetry_space_group_name_H-M    'P 1'
_cell_length_a                    8.141976805 
_cell_length_b                    9.631778543
_cell_length_c                    16.0 
_cell_angle_alpha                 90
_cell_angle_beta                  90
_cell_angle_gamma                 90
_symmetry_Int_Tables_number       1

loop_
  _atom_site_type_symbol
  _atom_site_fract_x
  _atom_site_fract_y
  _atom_site_fract_z
Pb        0.0000000000        0.0000000000        0.5000000000
Pb        0.5000000000        0.5000000000        0.5000000000
I         0.1723910848        0.3053718039        0.4654486379
I         0.8276089152        0.6946281961        0.5345513621
I         0.3276089152        0.8053718039        0.5345513621
I         0.6723910848        0.1946281961        0.4654486379
I        -0.0223011778        0.0718383247        0.7020090776
I         0.0223011778       -0.0718383247        0.2979909224
I         0.4776988222        0.4281616753        0.7020090776
I         0.5223011778        0.5718383247        0.2979909224
Cs        0.5057397077        0.0459964757        0.6872283376
Cs        0.0057397077        0.4540035243        0.6872283376
Cs        0.4942602923       -0.0459964757        0.3127716624
Cs       -0.0057397077        0.5459964757        0.3127716624

#------------------------------------------------------

data_20_12.5

_symmetry_space_group_name_H-M    'P 1'
_cell_length_a                    8.030263472 
_cell_length_b                    9.632193788
_cell_length_c                    16.0 
_cell_angle_alpha                 90
_cell_angle_beta                  90
_cell_angle_gamma                 90
_symmetry_Int_Tables_number       1

loop_
  _atom_site_type_symbol
  _atom_site_fract_x
  _atom_site_fract_y
  _atom_site_fract_z
Pb        0.0000000000        0.0000000000        0.5000000000
Pb        0.5000000000        0.5000000000        0.5000000000
I         0.1549065532        0.3160949869        0.4649382916
I         0.8450934468        0.6839050131        0.5350617084
I         0.3450934468        0.8160949869        0.5350617084
I         0.6549065532        0.1839050131        0.4649382916
I        -0.0271822669        0.0714619877        0.7039189949
I         0.0271822669       -0.0714619877        0.2960810051
I         0.4728177331        0.4285380123        0.7039189949
I         0.5271822669        0.5714619877        0.2960810051
Cs        0.4986564425        0.0460424000        0.6964739030
Cs       -0.0013435575        0.4539576000        0.6964739030
Cs        0.5013435575       -0.0460424000        0.3035260970
Cs        0.0013435575        0.5460424000        0.3035260970

#------------------------------------------------------

data_15_15

_symmetry_space_group_name_H-M    'P 1'
_cell_length_a                    9.059508501 
_cell_length_b                    8.971092854
_cell_length_c                    16.0 
_cell_angle_alpha                 90
_cell_angle_beta                  90
_cell_angle_gamma                 90
_symmetry_Int_Tables_number       1

loop_
  _atom_site_type_symbol
  _atom_site_fract_x
  _atom_site_fract_y
  _atom_site_fract_z
Pb        0.0000000000        0.0000000000        0.5000000000
Pb        0.5000000000        0.5000000000        0.5000000000
I         0.2036817000        0.2972357898        0.4617889224
I         0.7963183000        0.7027642102        0.5382110776
I         0.2963183000        0.7972357898        0.5382110776
I         0.7036817000        0.2027642102        0.4617889224
I        -0.0173375885        0.0935785020        0.6992142777
I         0.0173375885       -0.0935785020        0.3007857223
I         0.4826624115        0.4064214980        0.6992142777
I         0.5173375885        0.5935785020        0.3007857223
Cs        0.5750882427        0.0074262271        0.6731558414
Cs        0.0750882427        0.4925737729        0.6731558414
Cs        0.4249117573       -0.0074262271        0.3268441586
Cs       -0.0750882427        0.5074262271        0.3268441586

#------------------------------------------------------

data_17.5_15

_symmetry_space_group_name_H-M    'P 1'
_cell_length_a                    9.428341787 
_cell_length_b                    8.395808514
_cell_length_c                    16.0 
_cell_angle_alpha                 90
_cell_angle_beta                  90
_cell_angle_gamma                 90
_symmetry_Int_Tables_number       1

loop_
  _atom_site_type_symbol
  _atom_site_fract_x
  _atom_site_fract_y
  _atom_site_fract_z
Pb        0.0000000000        0.0000000000        0.5000000000
Pb        0.5000000000        0.5000000000        0.5000000000
I         0.1929906949        0.3218937824        0.4637149612
I         0.8070093051        0.6781062176        0.5362850388
I         0.3070093051        0.8218937824        0.5362850388
I         0.6929906949        0.1781062176        0.4637149612
I        -0.0225366144        0.0988286664        0.6997862585
I         0.0225366144       -0.0988286664        0.3002137415
I         0.4774633856        0.4011713336        0.6997862585
I         0.5225366144        0.5988286664        0.3002137415
Cs        0.5927492610       -0.0219360618        0.6797384544
Cs        0.0927492610        0.5219360618        0.6797384544
Cs        0.4072507390        0.0219360618        0.3202615456
Cs       -0.0927492610        0.4780639382        0.3202615456

#------------------------------------------------------

data_20_15

_symmetry_space_group_name_H-M    'P 1'
_cell_length_a                    8.042007651 
_cell_length_b                    9.703646493
_cell_length_c                    16.0 
_cell_angle_alpha                 90
_cell_angle_beta                  90
_cell_angle_gamma                 90
_symmetry_Int_Tables_number       1

loop_
  _atom_site_type_symbol
  _atom_site_fract_x
  _atom_site_fract_y
  _atom_site_fract_z
Pb        0.0000000000        0.0000000000        0.5000000000
Pb        0.5000000000        0.5000000000        0.5000000000
I         0.1614135643        0.3108451910        0.4576580819
I         0.8385864357        0.6891548090        0.5423419181
I         0.3385864357        0.8108451910        0.5423419181
I         0.6614135643        0.1891548090        0.4576580819
I        -0.0304055040        0.0858074484        0.7024186865
I         0.0304055040       -0.0858074484        0.2975813135
I         0.4695944960        0.4141925516        0.7024186865
I         0.5304055040        0.5858074484        0.2975813135
Cs        0.5028273599        0.0408532968        0.6973534192
Cs        0.0028273599        0.4591467032        0.6973534192
Cs        0.4971726401       -0.0408532968        0.3026465808
Cs       -0.0028273599        0.5408532968        0.3026465808

#------------------------------------------------------

data_17.5_17.5

_symmetry_space_group_name_H-M    'P 1'
_cell_length_a                    9.335284338 
_cell_length_b                    8.631837802
_cell_length_c                    16.0 
_cell_angle_alpha                 90
_cell_angle_beta                  90
_cell_angle_gamma                 90
_symmetry_Int_Tables_number       1

loop_
  _atom_site_type_symbol
  _atom_site_fract_x
  _atom_site_fract_y
  _atom_site_fract_z
Pb        0.0000000000        0.0000000000        0.5000000000
Pb        0.5000000000        0.5000000000        0.5000000000
I         0.1975302587        0.3107315158        0.4562411673
I         0.8024697413        0.6892684842        0.5437588327
I         0.3024697413        0.8107315158        0.5437588327
I         0.6975302587        0.1892684842        0.4562411673
I        -0.0237030436        0.1129367280        0.6988457511
I         0.0237030436       -0.1129367280        0.3011542489
I         0.4762969564        0.3870632720        0.6988457511
I         0.5237030436        0.6129367280        0.3011542489
Cs        0.5937110925       -0.0168203643        0.6799579133
Cs        0.0937110925        0.5168203643        0.6799579133
Cs        0.4062889075        0.0168203643        0.3200420867
Cs       -0.0937110925        0.4831796357        0.3200420867

#------------------------------------------------------

data_20_17.5

_symmetry_space_group_name_H-M    'P 1'
_cell_length_a                    9.649546081 
_cell_length_b                    8.029207055
_cell_length_c                    16.0 
_cell_angle_alpha                 90
_cell_angle_beta                  90
_cell_angle_gamma                 90
_symmetry_Int_Tables_number       1

loop_
  _atom_site_type_symbol
  _atom_site_fract_x
  _atom_site_fract_y
  _atom_site_fract_z
Pb        0.0000000000        0.0000000000        0.5000000000
Pb        0.5000000000        0.5000000000        0.5000000000
I         0.1882041035        0.3392075067        0.4587187953
I         0.8117958965        0.6607924933        0.5412812047
I         0.3117958965        0.8392075067        0.5412812047
I         0.6882041035        0.1607924933        0.4587187953
I        -0.0296329105        0.1198821935        0.6991234598
I         0.0296329105       -0.1198821935        0.3008765402
I         0.4703670895        0.3801178065        0.6991234598
I         0.5296329105        0.6198821935        0.3008765402
Cs        0.6073282716       -0.0461048781        0.6871234940
Cs        0.1073282716        0.5461048781        0.6871234940
Cs        0.3926717284        0.0461048781        0.3128765060
Cs       -0.1073282716        0.4538951219        0.3128765060

#------------------------------------------------------

data_20_20

_symmetry_space_group_name_H-M    'P 1'
_cell_length_a                    9.515504294 
_cell_length_b                    8.289755694
_cell_length_c                    16.0 
_cell_angle_alpha                 90
_cell_angle_beta                  90
_cell_angle_gamma                 90
_symmetry_Int_Tables_number       1

loop_
  _atom_site_type_symbol
  _atom_site_fract_x
  _atom_site_fract_y
  _atom_site_fract_z
Pb        0.0000000000        0.0000000000        0.5000000000
Pb        0.5000000000        0.5000000000        0.5000000000
I         0.1917726171        0.3262540351        0.4510280229
I         0.8082273829        0.6737459649        0.5489719771
I         0.3082273829        0.8262540351        0.5489719771
I         0.6917726171        0.1737459649        0.4510280229
I        -0.0311212879        0.1336196407        0.6975814609
I         0.0311212879       -0.1336196407        0.3024185391
I         0.4688787121        0.3663803593        0.6975814609
I         0.5311212879        0.6336196407        0.3024185391
Cs        0.6075429339       -0.0419311227        0.6883551763
Cs        0.1075429339        0.5419311227        0.6883551763
Cs        0.3924570661        0.0419311227        0.3116448237
Cs       -0.1075429339        0.4580688773        0.3116448237


